version 2
run General-0-20260106-12:29:18-1669953
attr configname General
attr datetime 20260106-12:29:18
attr experiment General
attr inifile omnetpp.ini
attr iterationvars ""
attr iterationvarsf ""
attr measurement ""
attr network IntersectionScenario
attr processid 1669953
attr repetition 0
attr replication #0
attr resultdir results
attr runnumber 0
attr seedset 0
param *.playgroundSizeX 2500m
param *.playgroundSizeY 2500m
param *.playgroundSizeZ 50m
param *.annotations.draw true
param *.connectionManager.sendDirect true
param *.connectionManager.maxInterfDist 2600m
param *.connectionManager.drawMaxIntfDist false
param *.world.useTorus false
param *.world.use2D true
param *.manager.updateInterval 0.1s
param *.manager.host "\"localhost\""
param *.manager.port 9999
param *.manager.autoShutdown true
param *.manager.launchConfig "xmldoc(\"intersection.launchd.xml\")"
param *.manager.moduleType "\"org.car2x.veins.nodes.Car\""
param *.manager.moduleName "\"node\""
param *.node[*].applType "\"benchmark.wave.HelloWaveApplication\""
param *.node[*].appl.headerLength "80 bit"
param *.node[*].appl.sendBeacons false
param *.node[*].nicType "\"Nic80211p\""
param *.node[*].nic.mac1609_4.useServiceChannel false
param *.node[*].nic.mac1609_4.txPower 20mW
param *.node[*].nic.mac1609_4.bitrate 6Mbps
param *.node[*].nic.phy80211p.sensitivity -89dBm
param *.node[*].nic.phy80211p.maxTXPower 20mW
param *.node[*].nic.phy80211p.useThermalNoise true
param *.node[*].nic.phy80211p.thermalNoise -110dBm
param *.node[*].nic.phy80211p.decider "xmldoc(\"config.xml\")"
param *.node[*].nic.phy80211p.analogueModels "xmldoc(\"config.xml\", \"//AnalogueModel\")"
param *.node[*].nic.phy80211p.usePropagationDelay true
param *.node[*].nic.phy80211p.minPowerLevel -110dBm
param *.node[*].veinsmobility.x 0
param *.node[*].veinsmobility.y 0
param *.node[*].veinsmobility.z 1.895
param *.node[*].veinsmobility.setHostSpeed false

vector 0 IntersectionScenario.node[0].veinsmobility posx ETV
vector 1 IntersectionScenario.node[0].veinsmobility posy ETV
vector 2 IntersectionScenario.node[1].veinsmobility posx ETV
vector 3 IntersectionScenario.node[1].veinsmobility posy ETV
vector 4 IntersectionScenario.node[2].veinsmobility posx ETV
vector 5 IntersectionScenario.node[2].veinsmobility posy ETV
vector 6 IntersectionScenario.node[3].veinsmobility posx ETV
vector 7 IntersectionScenario.node[3].veinsmobility posy ETV
vector 8 IntersectionScenario.node[0].veinsmobility speed ETV
vector 9 IntersectionScenario.node[1].veinsmobility speed ETV
vector 10 IntersectionScenario.node[2].veinsmobility speed ETV
vector 11 IntersectionScenario.node[3].veinsmobility speed ETV
vector 12 IntersectionScenario.node[0].veinsmobility acceleration ETV
vector 13 IntersectionScenario.node[0].veinsmobility co2emission ETV
vector 14 IntersectionScenario.node[1].veinsmobility acceleration ETV
vector 15 IntersectionScenario.node[1].veinsmobility co2emission ETV
vector 16 IntersectionScenario.node[2].veinsmobility acceleration ETV
vector 17 IntersectionScenario.node[2].veinsmobility co2emission ETV
vector 18 IntersectionScenario.node[3].veinsmobility acceleration ETV
vector 19 IntersectionScenario.node[3].veinsmobility co2emission ETV
15	436	0.3	0.973
15	437	0.4	3.0798719338046
15	438	0.5	1.074013015891
15	439	0.6	3.1621882830902
15	440	0.7	0.973
15	441	0.8	4.924989946753
15	442	0.9	2.6962082505328
15	443	1	0.973
15	444	1.1	2.5492470083055
15	445	1.2	4.5141972178477
15	446	1.3	0.973
15	447	1.4	4.6404207493283
15	448	1.5	0.973
15	449	1.6	1.5793306272079
15	450	1.7	2.3466561493106
15	451	1.8	2.898721601044
15	452	1.9	4.9049450974143
15	453	2	0.973
15	454	2.1	0.973
15	455	2.2	1.3842731037799
15	456	2.3	5.2905639130925
15	457	2.4	1.2822695473343
15	458	2.5	0.973
15	459	2.6	5.9097499435594
15	460	2.7	0.973
15	461	2.8	2.5234615099497
15	462	2.9	3.1077092771863
15	463	3	1.7892954199517
15	464	3.1	0.973
15	465	3.2	0.973
15	466	3.3	2.1087082753217
15	467	3.4	2.3905151879095
15	468	3.5	5.4665831838582
15	469	3.6	0.973
15	470	3.7	3.4216722928671
15	471	3.8	0.973
15	472	3.9	2.1976433701129
15	473	4	1.6495019997507
15	474	4.1	0.973
15	475	4.2	2.5083284703741
15	476	4.3	1.7972631599014
15	477	4.4	4.3383654469705
15	478	4.5	2.2121378396504
15	479	4.6	0.973
15	480	4.7	3.6419997281697
15	481	4.8	2.5327428514173
15	482	4.9	0.973
15	483	5	3.0018334074617
15	484	5.1	0.973
15	485	5.2	4.1400145760586
15	486	5.3	1.8676738951679
15	487	5.4	0.973
15	488	5.5	5.6879456317875
15	489	5.6	2.3208191488036
15	490	5.7	0.973
15	491	5.8	3.4026014107771
15	492	5.9	1.7555802736029
15	493	6	1.7656607475892
15	494	6.1	3.8224192639624
15	495	6.2	0.973
15	496	6.3	3.4928051013834
15	497	6.4	1.2154323033483
15	498	6.5	1.3892668081797
15	499	6.6	3.9545017018922
15	500	6.7	1.3841968539352
15	501	6.8	3.539558227491
15	502	6.9	1.1905743551816
15	503	7	2.778385783781
15	504	7.1	3.394488757933
15	505	7.2	1.8871002828229
15	506	7.3	0.973
15	507	7.4	1.6914161029026
15	508	7.5	4.0211638184053
15	509	7.6	1.7626105613538
15	510	7.7	2.2201227328556
15	511	7.8	1.2860723652079
15	512	7.9	0.973
15	513	8	2.2946697169354
15	514	8.1	5.6571477674516
15	515	8.2	0.973
15	516	8.3	2.9123527017858
15	517	8.4	1.255180365403
15	518	8.5	0.973
15	519	8.6	2.1310830161591
15	520	8.7	4.8185722563484
15	521	8.8	2.2325548762412
15	522	8.9	0.973
15	523	9	1.5862141265127
15	524	9.1	3.6021701754654
15	525	9.2	0.973
15	526	9.3	4.610578628834
15	527	9.4	0.973
15	528	9.5	3.3328935267063
15	529	9.6	3.0605290271225
15	530	9.7	0.973
15	531	9.8	4.6186050789939
15	532	9.9	0.973
15	533	10	4.8059061583935
15	534	10.1	0.973
15	535	10.2	3.7551719336766
15	536	10.3	1.1817396549336
15	537	10.4	4.7853542555767
15	538	10.5	0.973
15	539	10.6	2.4639838229142
15	540	10.7	1.9436280541187
15	541	10.8	3.4361144786688
15	542	10.9	0.973
15	543	11	6.023143407313
15	544	11.1	1.5700998266839
15	545	11.2	0.973
15	546	11.3	3.1735579849681
15	547	11.4	0.973
15	548	11.5	1.46488741494
15	549	11.6	4.4930114076079
15	550	11.7	0.973
15	551	11.8	2.936984216055
15	552	11.9	0.973
15	553	12	5.8906124506734
15	554	12.1	1.2058114707633
15	555	12.2	0.973
15	556	12.3	3.2332829581269
15	557	12.4	2.3153060966845
15	558	12.5	0.973
15	559	12.6	4.4841923360379
15	560	12.7	0.973
15	561	12.8	4.2750744212127
15	562	12.9	1.5788440641626
15	563	13	4.1583544585684
15	564	13.1	0.973
15	565	13.2	3.6976140401717
15	566	13.3	0.973
15	567	13.4	1.2598903455931
15	568	13.5	1.76700741159
15	569	13.6	5.5023189487259
15	570	13.7	1.4621794943279
15	571	13.8	0.973
15	572	13.9	3.5132928215602
15	573	14	3.0419260600168
15	574	14.1	0.973
15	575	14.2	2.3838249686517
15	576	14.3	2.2160225660123
15	577	14.4	1.5570740235093
15	578	14.5	5.6285866662265
15	579	14.6	0.973
15	580	14.7	5.9199096761772
15	581	14.8	0.973
15	582	14.9	2.9644919938282
15	583	15	3.4658656166224
15	584	15.1	2.1753999565434
15	585	15.2	0.973
15	586	15.3	1.5634668186206
15	587	15.4	4.0747877588477
15	588	15.5	0.973
15	589	15.6	2.1503313825811
15	590	15.7	2.0678683852759
15	591	15.8	3.5790391832963
15	592	15.9	0.973
15	593	16	4.1025904934599
15	594	16.1	2.5401972677721
15	595	16.2	0.973
15	596	16.3	3.5471295859352
15	597	16.4	3.1003670991267
15	598	16.5	0.973
15	599	16.6	2.5226091375474
15	600	16.7	3.2134291913745
15	601	16.8	0.973
15	602	16.9	3.6886140722543
15	603	17	1.2861106443826
15	604	17.1	3.1891032323879
15	605	17.2	2.6419535094443
15	606	17.3	2.4988203762099
15	607	17.4	0.973
15	608	17.5	2.2004069873168
15	609	17.6	1.2233108833947
15	610	17.7	2.8508000774765
15	611	17.8	0.973
15	612	17.9	2.06247099513
15	613	18	3.7704482938658
15	614	18.1	3.5170385028339
15	615	18.2	0.973
15	616	18.3	5.8834269637601
15	617	18.4	1.7050198721169
15	618	18.5	0.973
15	619	18.6	3.693953291568
15	620	18.7	2.0736338214034
15	621	18.8	0.973
15	622	18.9	1.6263031642351
15	623	19	2.0545982791782
15	624	19.1	4.1500814183888
15	625	19.2	0.973
15	626	19.3	5.595092562717
15	627	19.4	0.973
15	628	19.5	2.7609492738773
15	629	19.6	3.5609267556924
15	630	19.7	1.3247875937875
15	631	19.8	2.857965041396
15	632	19.9	1.6335896100674
15	633	20	0.973
15	634	20.1	1.939546783382
15	635	20.2	4.1408240656448
15	636	20.3	0.973
15	637	20.4	2.3001318284195
15	638	20.5	1.3998272134162
15	639	20.6	3.6367857611155
15	640	20.7	0.973
15	641	20.8	2.982511120961
15	642	20.9	2.8718308795164
15	643	21	0.973
15	644	21.1	3.2355199409015
15	645	21.2	1.1036362868288
15	646	21.3	6.128723177217
15	647	21.4	1.4763307360794
15	648	21.5	1.2728562340502
15	649	21.6	0.973
15	650	21.7	5.7700889339631
15	651	21.8	1.6447298345994
15	652	21.9	2.6675943833135
15	653	22	0.973
15	654	22.1	0.973
15	655	22.2	4.3774749627088
15	656	22.3	2.7472169878529
15	657	22.4	0.973
15	658	22.5	3.1421055640438
15	659	22.6	3.1125518430082
15	660	22.7	0.973
15	661	22.8	0.973
15	662	22.9	3.1458063919313
15	663	23	3.6071008661863
15	664	23.1	0.973
15	665	23.2	0.973
15	666	23.3	2.3063930264963
15	667	23.4	5.0658117282155
15	668	23.5	0.973
15	669	23.6	2.5150926004286
15	670	23.7	4.5034557932614
15	671	23.8	0.973
15	672	23.9	1.8865077921945
15	673	24	3.3687033526032
15	674	24.1	1.8579032644402
15	675	24.2	0.973
15	676	24.3	3.3264009881243
15	677	24.4	0.973
15	678	24.5	0.973
15	679	24.6	2.9320992825386
15	680	24.7	5.0810402333197
15	681	24.8	0.973
15	682	24.9	3.8001878875771
15	683	25	3.9615496843095
15	684	25.1	1.4154097603261
15	685	25.2	2.1924124455533
15	686	25.3	1.6167554089547
15	687	25.4	0.973
15	688	25.5	4.1970638333727
15	689	25.6	3.1874701866022
15	690	25.7	2.8057249383287
15	691	25.8	1.2526071554119
15	692	25.9	0.973
15	693	26	3.0596072991153
15	694	26.1	0.973
15	695	26.2	3.0913981222047
15	696	26.3	5.1527238524577
15	697	26.4	0.973
15	698	26.5	4.2763605180695
15	699	26.6	2.6773656105118
15	700	26.7	0.973
15	701	26.8	0.973
15	702	26.9	3.6604616773562
15	703	27	3.0977447951008
15	704	27.1	0.973
15	705	27.2	3.6709347413944
15	706	27.3	0.973
15	707	27.4	4.5946901932209
15	708	27.5	0.973
15	709	27.6	6.2803700587682
15	710	27.7	0.973
15	711	27.8	3.1462420849307
15	712	27.9	2.5008380867719
15	713	28	0.973
15	714	28.1	4.0388628723245
15	715	28.2	2.0733327352296
15	716	28.3	0.973
15	717	28.4	2.5705740655803
15	718	28.5	3.6072124174576
15	719	28.6	0.973
15	720	28.7	0.973
15	721	28.8	4.5819392313393
15	722	28.9	0.973
15	723	29	3.0351565643086
15	724	29.1	5.0517299470896
15	725	29.2	0.973
15	726	29.3	2.3523489963789
15	727	29.4	0.973
15	728	29.5	3.738561231845
15	729	29.6	1.5554012091439
15	730	29.7	2.2604440678965
15	731	29.8	1.6776146085383
15	732	29.9	2.5943813237091
15	733	30	1.9211082223095
15	734	30.1	2.7899917635112
15	735	30.2	0.973
15	736	30.3	3.3306641300029
15	737	30.4	2.8635070677185
15	738	30.5	1.4675383273338
15	739	30.6	2.3608713217721
15	740	30.7	0.973
15	741	30.8	3.7333269012973
15	742	30.9	0.973
15	743	31	2.8384935158822
15	744	31.1	3.1267979409972
15	745	31.2	0.973
15	746	31.3	5.6720665369761
15	747	31.4	0.973
15	748	31.5	3.346116253135
15	749	31.6	3.5902574873074
15	750	31.7	0.973
15	751	31.8	4.6755464763224
15	752	31.9	0.973
15	753	32	0.973
15	754	32.1	5.0167210835414
15	755	32.2	1.3348081474566
15	756	32.3	0.973
15	757	32.4	3.3823484170534
15	758	32.5	2.3759662552111
15	759	32.6	0.973
15	760	32.7	3.5547067849945
15	761	32.8	0.973
15	762	32.9	3.7013614832682
15	763	33	1.7356509336656
15	764	33.1	1.9204051482124
15	765	33.2	0.973
15	766	33.3	2.8020840724195
15	767	33.4	3.3584575843229
15	768	33.5	0.973
15	769	33.6	6.182878283588
15	770	33.7	0.973
15	771	33.8	3.55866832156
15	772	33.9	1.829744257429
15	773	34	1.3651039412313
15	774	34.1	2.6421229572055
15	775	34.2	0.973
15	776	34.3	1.638099239969
15	777	34.4	4.0882863034261
15	778	34.5	0.973
15	779	34.6	4.0007272848857
15	780	34.7	0.973
15	781	34.8	2.2531135822523
15	782	34.9	3.8096844377837
15	783	35	0.973
15	784	35.1	4.0458705516785
15	785	35.2	1.6026387450278
15	786	35.3	0.973
15	787	35.4	2.2472917263275
15	788	35.5	4.5290758306157
15	789	35.6	0.973
15	790	35.7	2.8582357511153
15	791	35.8	1.3646529007967
15	792	35.9	0.973
15	793	36	5.1999942316243
15	794	36.1	0.973
15	795	36.2	2.0283927691906
15	796	36.3	3.3381413043044
15	797	36.4	1.2745816254569
15	798	36.5	0.973
15	799	36.6	4.5954458613796
15	800	36.7	2.2240637451374
15	801	36.8	2.3463314191905
15	802	36.9	1.2174474569728
15	803	37	0.973
15	804	37.1	6.0640836928507
15	805	37.2	0.973
15	806	37.3	0.973
15	807	37.4	4.4401824639678
15	808	37.5	0.973
15	809	37.6	2.9879467670062
15	810	37.7	3.6779263496253
15	811	37.8	0.973
15	812	37.9	3.0415106951236
15	813	38	0.973
15	814	38.1	3.6867920062482
15	815	38.2	0.973
15	816	38.3	3.5861099443589
15	817	38.4	2.032674357482
15	818	38.5	2.6469924301199
15	819	38.6	0.973
15	820	38.7	5.1320455694307
15	821	38.8	0.973
15	822	38.9	5.5966438088181
15	823	39	0.973
15	824	39.1	5.2721893885911
15	825	39.2	1.8830681583285
15	826	39.3	1.8493788773213
15	827	39.4	1.3165650211186
15	828	39.5	0.973
15	829	39.6	4.4877998692981
15	830	39.7	1.6149438006977
15	831	39.8	2.3038431266583
15	832	39.9	3.3972547156203
15	833	40	0.973
15	834	40.1	1.8853427299763
15	835	40.2	0.973
15	836	40.3	2.093565668809
15	837	40.4	4.5492403590351
15	838	40.5	1.4468771152082
15	839	40.6	0.973
15	840	40.7	4.162495702404
15	841	40.8	3.8881119451504
15	842	40.9	0.973
15	843	41	0.973
15	844	41.1	1.2642199414965
15	845	41.2	4.8241357999696
15	846	41.3	0.973
15	847	41.4	1.7612884645404
15	848	41.5	2.9594015495003
15	849	41.6	3.6239528288624
15	850	41.7	0.973
15	851	41.8	4.7541420053983
15	852	41.9	2.3656987282335
15	853	42	0.973
15	854	42.1	3.7594976656575
15	855	42.2	2.9352985014651
15	856	42.3	2.0066009781157
15	857	42.4	2.041110447577
15	858	42.5	0.973
15	859	42.6	1.4751924919184
15	860	42.7	5.4636475867892
15	861	42.8	0.973
14	436	0.3	-0.5735241820803
14	437	0.4	0.31161929897499
14	438	0.5	-0.28509743441829
14	439	0.6	0.33584244214
14	440	0.7	-0.66267564769369
14	441	0.8	0.85850908346474
14	442	0.9	0.1954649984371
14	443	1	-0.98858978317585
14	444	1.1	0.15531364728231
14	445	1.2	0.73564883698708
14	446	1.3	-0.5562913864618
14	447	1.4	0.77128343828953
14	448	1.5	-1.0800406684633
14	449	1.6	-0.13362711460797
14	450	1.7	0.095471170591193
14	451	1.8	0.2591704195831
14	452	1.9	0.84978278139605
14	453	2	-0.59776130118406
14	454	2.1	-0.43004027104471
14	455	2.2	-0.19193003452383
14	456	2.3	0.96661915460135
14	457	2.4	-0.22350263821426
14	458	2.5	-0.7404430982424
14	459	2.6	1.1484366085613
14	460	2.7	-0.49889763263053
14	461	2.8	0.14549282193183
14	462	2.9	0.31753274011425
14	463	3	-0.073428790550665
14	464	3.1	-0.75677069015802
14	465	3.2	-0.308620466711
14	466	3.3	0.024718800466506
14	467	3.4	0.10858141658828
14	468	3.5	1.0172409277409
14	469	3.6	-0.51470679452176
14	470	3.7	0.41122766314073
14	471	3.8	-0.2901921632234
14	472	3.9	0.048662735102702
14	473	4	-0.11409462206066
14	474	4.1	-0.4934030183591
14	475	4.2	0.14294201938901
14	476	4.3	-0.06905119654256
14	477	4.4	0.68409232525156
14	478	4.5	0.052280543395309
14	479	4.6	-0.53979571431409
14	480	4.7	0.47729065904859
14	481	4.8	0.14713982429821
14	482	4.9	-0.36308922339231
14	483	5	0.2867435157299
14	484	5.1	-0.46759745290037
14	485	5.2	0.62354356332216
14	486	5.3	-0.050315607641824
14	487	5.4	-1.0836153197568
14	488	5.5	1.0832187782973
14	489	5.6	0.083835458476091
14	490	5.7	-1.1157708058134
14	491	5.8	0.40883312148509
14	492	5.9	-0.081850067921927
14	493	6	-0.078649424482133
14	494	6.1	0.53141256431118
14	495	6.2	-0.85289227764589
14	496	6.3	0.43600141180214
14	497	6.4	-0.24266506864222
14	498	6.5	-0.19043004224077
14	499	6.6	0.5726539448602
14	500	6.7	-0.19257518055383
14	501	6.8	0.44747181774584
14	502	6.9	-0.25056826376822
14	503	7	0.22131115780212
14	504	7.1	0.40213360597845
14	505	7.2	-0.044696134910911
14	506	7.3	-0.51864391793497
14	507	7.4	-0.10130538861267
14	508	7.5	0.58849878483452
14	509	7.6	-0.081342896074066
14	510	7.7	0.054279434983631
14	511	7.8	-0.22255580574274
14	512	7.9	-0.78873400962912
14	513	8	0.079752152506263
14	514	8.1	1.0726224990096
14	515	8.2	-0.4511620827485
14	516	8.3	0.25992760164664
14	517	8.4	-0.23165515223518
14	518	8.5	-0.51079873654526
14	519	8.6	0.0303346286295
14	520	8.7	0.82474822804796
14	521	8.8	0.057553967414439
14	522	8.9	-0.44001026640181
14	523	9	-0.13287388100288
14	524	9.1	0.4642958978191
14	525	9.2	-0.80124128621538
14	526	9.3	0.76381048923357
14	527	9.4	-0.81794138257392
14	528	9.5	0.38711798919831
14	529	9.6	0.30444429402706
14	530	9.7	-0.85242878764403
14	531	9.8	0.76799085948151
14	532	9.9	-0.60128281884827
14	533	10	0.82169444395694
14	534	10.1	-1.1106930736918
14	535	10.2	0.51388117170427
14	536	10.3	-0.25277756173164
14	537	10.4	0.815894466592
14	538	10.5	-0.96181694678961
14	539	10.6	0.13013109257445
14	540	10.7	-0.025179784279317
14	541	10.8	0.41804052437655
14	542	10.9	-0.60894785125274
14	543	11	1.1817698618164
14	544	11.1	-0.13848738670349
14	545	11.2	-0.29359549439977
14	546	11.3	0.33724790296983
14	547	11.4	-0.63353053780739
14	548	11.5	-0.16833397799637
14	549	11.6	0.72939272988588
14	550	11.7	-0.58055491710547
14	551	11.8	0.26894929744303
14	552	11.9	-0.70231881302316
14	553	12	1.1428976910422
14	554	12.1	-0.24643690222874
14	555	12.2	-0.59030653228984
14	556	12.3	0.35733534023166
14	557	12.4	0.083795070392085
14	558	12.5	-0.66453483800871
14	559	12.6	0.72844669255428
14	560	12.7	-0.73537762435151
14	561	12.8	0.66680477091577
14	562	12.9	-0.1349916198291
14	563	13	0.62835815073923
14	564	13.1	-1.0819249618333
14	565	13.2	0.49563409776892
14	566	13.3	-0.32309332860168
14	567	13.4	-0.22925785135012
14	568	13.5	-0.077507160417749
14	569	13.6	1.0286990972469
14	570	13.7	-0.17022342842537
14	571	13.8	-0.71754014343023
14	572	13.9	0.44106244568246
14	573	14	0.29914607326502
14	574	14.1	-0.74779241317884
14	575	14.2	0.10602890995797
14	576	14.3	0.055745605216373
14	577	14.4	-0.14059672495351
14	578	14.5	1.0641549449181
14	579	14.6	-1.1516367525794
14	580	14.7	1.1505233590258
14	581	14.8	-1.242210533144
14	582	14.9	0.27928963762243
14	583	15	0.42633573801723
14	584	15.1	0.042191377840943
14	585	15.2	-0.37635395596736
14	586	15.3	-0.13879634079059
14	587	15.4	0.60654521351681
14	588	15.5	-0.64902617726476
14	589	15.6	0.036450952431188
14	590	15.7	0.011791061633275
14	591	15.8	0.46005800508429
14	592	15.9	-0.71495856984985
14	593	16	0.61659273970873
14	594	16.1	0.1506987686269
14	595	16.2	-0.47977328386624
14	596	16.3	0.45041813233402
14	597	16.4	0.31581419906578
14	598	16.5	-0.5078598730266
14	599	16.6	0.14577556818258
14	600	16.7	0.34944820741657
14	601	16.8	-0.92891778091435
14	602	16.9	0.49338511181995
14	603	17	-0.22180439941584
14	604	17.1	0.34394868125673
14	605	17.2	0.18035837309435
14	606	17.3	0.13727067217696
14	607	17.4	-0.31263220463879
14	608	17.5	0.049569347780203
14	609	17.6	-0.24074378628285
14	610	17.7	0.24301220700146
14	611	17.8	-0.76263628851157
14	612	17.9	0.010871222149582
14	613	18	0.51812619254925
14	614	18.1	0.43989802787545
14	615	18.2	-0.97569786226376
14	616	18.3	1.1408579473617
14	617	18.4	-0.098422405240122
14	618	18.5	-0.57694615046493
14	619	18.6	0.49255710963624
14	620	18.7	0.011230828799302
14	621	18.8	-0.44073603423312
14	622	18.9	-0.12041302823926
14	623	19	0.0072857866762099
14	624	19.1	0.62740456215106
14	625	19.2	-1.0311277817935
14	626	19.3	1.0560982557014
14	627	19.4	-0.95418395274319
14	628	19.5	0.21829946467188
14	629	19.6	0.45412527415902
14	630	19.7	-0.21058311623056
14	631	19.8	0.2448992205551
14	632	19.9	-0.11888185478748
14	633	20	-0.54261363907717
14	634	20.1	-0.026216704561381
14	635	20.2	0.62678770639469
14	636	20.3	-0.44159179094713
14	637	20.4	0.080563767603596
14	638	20.5	-0.18761700242758
14	639	20.6	0.47731838724575
14	640	20.7	-0.49868367309681
14	641	20.8	0.28369005732237
14	642	20.9	0.24949364501518
14	643	21	-0.75421165260487
14	644	21.1	0.35991841449867
14	645	21.2	-0.27590273348613
14	646	21.3	1.2121758741559
14	647	21.4	-0.16641308669932
14	648	21.5	-0.22647055597044
14	649	21.6	-0.90572033193894
14	650	21.7	1.1079700096976
14	651	21.8	-0.11613300882747
14	652	21.9	0.18687549494208
14	653	22	-0.71734641531949
14	654	22.1	-0.35468478500842
14	655	22.2	0.69709833618253
14	656	22.3	0.21123906672001
14	657	22.4	-0.57822830739896
14	658	22.5	0.32985600400716
14	659	22.6	0.31936033035162
14	660	22.7	-0.62323445638176
14	661	22.8	-0.4154097562423
14	662	22.9	0.33305143681355
14	663	23	0.46767832865008
14	664	23.1	-0.32943166776095
14	665	23.2	-0.50918422231916
14	666	23.3	0.083664685906832
14	667	23.4	0.90003633634188
14	668	23.5	-0.60007097534836
14	669	23.6	0.14424368585461
14	670	23.7	0.73072406835854
14	671	23.8	-0.49801865098999
14	672	23.9	-0.043593494966618
14	673	24	0.39518600893206
14	674	24.1	-0.053017298202018
14	675	24.2	-0.47725526094437
14	676	24.3	0.38348089172505
14	677	24.4	-0.34973296225072
14	678	24.5	-0.5929672496859
14	679	24.6	0.26968485605904
14	680	24.7	0.90255258707328
14	681	24.8	-1.1196461289655
14	682	24.9	0.52670276556164
14	683	25	0.57068801389542
14	684	25.1	-0.18425955751447
14	685	25.2	0.046371326153167
14	686	25.3	-0.12428795972372
14	687	25.4	-0.91366119920277
14	688	25.5	0.64460830444006
14	689	25.6	0.34210883853957
14	690	25.7	0.22765448149293
14	691	25.8	-0.23260210698936
14	692	25.9	-0.81395496774931
14	693	26	0.3068074680632
14	694	26.1	-0.45462507090997
14	695	26.2	0.31701649059542
14	696	26.3	0.92321388048585
14	697	26.4	-0.8626232255483
14	698	26.5	0.66495338852983
14	699	26.6	0.18942433490883
14	700	26.7	-0.38014959895516
14	701	26.8	-0.7526484217262
14	702	26.9	0.48509152599145
14	703	27	0.31581055207644
14	704	27.1	-0.83836461314931
14	705	27.2	0.48843420618214
14	706	27.3	-0.52870806276333
14	707	27.4	0.76165808055084
14	708	27.5	-0.80280131655744
14	709	27.6	1.2575359518174
14	710	27.7	-0.9394661759492
14	711	27.8	0.33168399347923
14	712	27.9	0.13895369041713
14	713	28	-0.58168945859652
14	714	28.1	0.59633780245203
14	715	28.2	0.011708297766742
14	716	28.3	-0.35330750851427
14	717	28.4	0.16039428240621
14	718	28.5	0.46613635770045
14	719	28.6	-0.41023246787955
14	720	28.7	-0.64587767405902
14	721	28.8	0.75797282489949
14	722	28.9	-0.76567530545873
14	723	29	0.30029490911403
14	724	29.1	0.89366498691961
14	725	29.2	-0.36210158907343
14	726	29.3	0.094183756411077
14	727	29.4	-0.43243882441894
14	728	29.5	0.50555311942007
14	729	29.6	-0.14245674218982
14	730	29.7	0.066886603482992
14	731	29.8	-0.10603875794914
14	732	29.9	0.16585129657761
14	733	30	-0.034007098781874
14	734	30.1	0.22306820396334
14	735	30.2	-0.81212206699421
14	736	30.3	0.38589306992945
14	737	30.4	0.24573706861119
14	738	30.5	-0.16851368295027
14	739	30.6	0.096737649012351
14	740	30.7	-0.6440275266068
14	741	30.8	0.5054463379085
14	742	30.9	-0.49949337132276
14	743	31	0.24054061335047
14	744	31.1	0.32470160429366
14	745	31.2	-0.77225205160211
14	746	31.3	1.0780580313876
14	747	31.4	-0.95016123752576
14	748	31.5	0.39137725415641
14	749	31.6	0.46115630399434
14	750	31.7	-0.60101247490383
14	751	31.8	0.7817464255495
14	752	31.9	-0.39796776194125
14	753	32	-0.59068074687385
14	754	32.1	0.88386787804776
14	755	32.2	-0.2081327588996
14	756	32.3	-0.49765667950268
14	757	32.4	0.4007940951502
14	758	32.5	0.10119445584714
14	759	32.6	-0.71869773520156
14	760	32.7	0.45307309669441
14	761	32.8	-0.44408377159852
14	762	32.9	0.49638285927941
14	763	33	-0.088321851659572
14	764	33.1	-0.033218504907548
14	765	33.2	-0.4240575407399
14	766	33.3	0.23027159119957
14	767	33.4	0.3938876041444
14	768	33.5	-0.81639283711556
14	769	33.6	1.2289596463554
14	770	33.7	-0.73381263853516
14	771	33.8	0.45260328038131
14	772	33.9	-0.060923762875618
14	773	34	-0.19871402555145
14	774	34.1	0.18062810653355
14	775	34.2	-0.47896236886736
14	776	34.3	-0.11654058629647
14	777	34.4	0.61043438366614
14	778	34.5	-0.77963964797091
14	779	34.6	0.58580960191321
14	780	34.7	-0.53153899307363
14	781	34.8	0.067242870363398
14	782	34.9	0.52850468915421
14	783	35	-0.35274907783604
14	784	35.1	0.59698766483924
14	785	35.2	-0.12839330139103
14	786	35.3	-0.39300893153996
14	787	35.4	0.064397299126728
14	788	35.5	0.73816127819009
14	789	35.6	-0.81075065280311
14	790	35.7	0.24561516067479
14	791	35.8	-0.19857034191956
14	792	35.9	-0.34243398902472
14	793	36	0.93865921031684
14	794	36.1	-0.62355857351795
14	795	36.2	-0.00066781765781343
14	796	36.3	0.38750336479861
14	797	36.4	-0.22560482777189
14	798	36.5	-0.30450773965567
14	799	36.6	0.75931476836558
14	800	36.7	0.055346098099847
14	801	36.8	0.091281207208507
14	802	36.9	-0.24308183607644
14	803	37	-0.93775215391069
14	804	37.1	1.1933347883168
14	805	37.2	-0.30632136939092
14	806	37.3	-0.45270706445445
14	807	37.4	0.71232111218851
14	808	37.5	-0.71359465213028
14	809	37.6	0.28384894335177
14	810	37.7	0.48591476369184
14	811	37.8	-0.44611984346993
14	812	37.9	0.29803205044008
14	813	38	-1.1161056617275
14	814	38.1	0.49359551486559
14	815	38.2	-0.43276396067812
14	816	38.3	0.46339086452498
14	817	38.4	0.00046917039435712
14	818	38.5	0.18273843848146
14	819	38.6	-0.7161647187313
14	820	38.7	0.92033684931229
14	821	38.8	-0.91619162624701
14	822	38.9	1.0569089188706
14	823	39	-0.89459335228895
14	824	39.1	0.95994009026327
14	825	39.2	-0.045600507454946
14	826	39.3	-0.055453978036528
14	827	39.4	-0.21334962930997
14	828	39.5	-0.64882476895582
14	829	39.6	0.72911741835997
14	830	39.7	-0.12451635436156
14	831	39.8	0.080138796335092
14	832	39.9	0.40284856269135
14	833	40	-0.33734741350635
14	834	40.1	-0.044349481747492
14	835	40.2	-0.40725273895077
14	836	40.3	0.018782222783198
14	837	40.4	0.74459085776471
14	838	40.5	-0.17502028213348
14	839	40.6	-0.97486911003944
14	840	40.7	0.63381504050922
14	841	40.8	0.54832626697607
14	842	40.9	-0.33780503848101
14	843	41	-0.31972742862999
14	844	41.1	-0.22830160825979
14	845	41.2	0.82634744180831
14	846	41.3	-0.72580290313343
14	847	41.4	-0.080054941610435
14	848	41.5	0.27595475506969
14	849	41.6	0.47077425455209
14	850	41.7	-0.90633663621265
14	851	41.8	0.80698413699865
14	852	41.9	0.097448937851006
14	853	42	-1.0319786257111
14	854	42.1	0.51447774639819
14	855	42.2	0.26769206528552
14	856	42.3	-0.008330755517818
14	857	42.4	0.0019216437591218
14	858	42.5	-0.47368450514041
14	859	42.6	-0.16511939282063
14	860	42.7	1.0154035082785
14	861	42.8	-0.49921310099307
9	246	0.2	13.967693683496
9	436	0.3	13.910341265288
9	437	0.4	13.941503195185
9	438	0.5	13.912993451743
9	439	0.6	13.946577695957
9	440	0.7	13.880310131188
9	441	0.8	13.966161039534
9	442	0.9	13.985707539378
9	443	1	13.886848561061
9	444	1.1	13.902379925789
9	445	1.2	13.975944809488
9	446	1.3	13.920315670841
9	447	1.4	13.99744401467
9	448	1.5	13.889439947824
9	449	1.6	13.876077236363
9	450	1.7	13.885624353422
9	451	1.8	13.911541395381
9	452	1.9	13.99651967352
9	453	2	13.936743543402
9	454	2.1	13.893739516297
9	455	2.2	13.874546512845
9	456	2.3	13.971208428305
9	457	2.4	13.948858164484
9	458	2.5	13.874813854659
9	459	2.6	13.989657515516
9	460	2.7	13.939767752253
9	461	2.8	13.954317034446
9	462	2.9	13.986070308457
9	463	3	13.978727429402
9	464	3.1	13.903050360386
9	465	3.2	13.872188313715
9	466	3.3	13.874660193762
9	467	3.4	13.885518335421
9	468	3.5	13.987242428195
9	469	3.6	13.935771748743
9	470	3.7	13.976894515057
9	471	3.8	13.947875298734
9	472	3.9	13.952741572245
9	473	4	13.941332110038
9	474	4.1	13.891991808203
9	475	4.2	13.906286010141
9	476	4.3	13.899380890487
9	477	4.4	13.967790123012
9	478	4.5	13.973018177352
9	479	4.6	13.919038605921
9	480	4.7	13.966767671825
9	481	4.8	13.981481654255
9	482	4.9	13.945172731916
9	483	5	13.973847083489
9	484	5.1	13.927087338199
9	485	5.2	13.989441694531
9	486	5.3	13.984410133767
9	487	5.4	13.876048601791
9	488	5.5	13.984370479621
9	489	5.6	13.992754025469
9	490	5.7	13.881176944887
9	491	5.8	13.922060257036
9	492	5.9	13.913875250244
9	493	6	13.906010307795
9	494	6.1	13.959151564226
9	495	6.2	13.873862336462
9	496	6.3	13.917462477642
9	497	6.4	13.893195970778
9	498	6.5	13.874152966554
9	499	6.6	13.93141836104
9	500	6.7	13.912160842984
9	501	6.8	13.956908024759
9	502	6.9	13.931851198382
9	503	7	13.953982314162
9	504	7.1	13.99419567476
9	505	7.2	13.989726061269
9	506	7.3	13.937861669476
9	507	7.4	13.927731130614
9	508	7.5	13.986581009098
9	509	7.6	13.97844671949
9	510	7.7	13.983874662989
9	511	7.8	13.961619082415
9	512	7.9	13.882745681452
9	513	8	13.890720896702
9	514	8.1	13.997983146603
9	515	8.2	13.952866938328
9	516	8.3	13.978859698493
9	517	8.4	13.95569418327
9	518	8.5	13.904614309615
9	519	8.6	13.907647772478
9	520	8.7	13.990122595283
9	521	8.8	13.995877992024
9	522	8.9	13.951876965384
9	523	9	13.938589577284
9	524	9.1	13.985019167066
9	525	9.2	13.904895038444
9	526	9.3	13.981276087367
9	527	9.4	13.89948194911
9	528	9.5	13.93819374803
9	529	9.6	13.968638177433
9	530	9.7	13.883395298668
9	531	9.8	13.960194384616
9	532	9.9	13.900066102732
9	533	10	13.982235547127
9	534	10.1	13.871166239758
9	535	10.2	13.922554356928
9	536	10.3	13.897276600755
9	537	10.4	13.978866047414
9	538	10.5	13.882684352736
9	539	10.6	13.895697461993
9	540	10.7	13.893179483565
9	541	10.8	13.934983536003
9	542	10.9	13.874088750877
9	543	11	13.992265737059
9	544	11.1	13.978416998389
9	545	11.2	13.949057448949
9	546	11.3	13.982782239246
9	547	11.4	13.919429185465
9	548	11.5	13.902595787665
9	549	11.6	13.975535060654
9	550	11.7	13.917479568943
9	551	11.8	13.944374498688
9	552	11.9	13.874142617385
9	553	12	13.98843238649
9	554	12.1	13.963788696267
9	555	12.2	13.904758043038
9	556	12.3	13.940491577061
9	557	12.4	13.9488710841
9	558	12.5	13.882417600299
9	559	12.6	13.955262269555
9	560	12.7	13.88172450712
9	561	12.8	13.948404984211
9	562	12.9	13.934905822228
9	563	13	13.997741637302
9	564	13.1	13.889549141119
9	565	13.2	13.939112550896
9	566	13.3	13.906803218035
9	567	13.4	13.8838774329
9	568	13.5	13.876126716859
9	569	13.6	13.978996626583
9	570	13.7	13.961974283741
9	571	13.8	13.890220269398
9	572	13.9	13.934326513966
9	573	14	13.964241121293
9	574	14.1	13.889461879975
9	575	14.2	13.90006477097
9	576	14.3	13.905639331492
9	577	14.4	13.891579658997
9	578	14.5	13.997995153489
9	579	14.6	13.882831478231
9	580	14.7	13.997883814133
9	581	14.8	13.873662760819
9	582	14.9	13.901591724581
9	583	15	13.944225298383
9	584	15.1	13.948444436167
9	585	15.2	13.91080904057
9	586	15.3	13.896929406491
9	587	15.4	13.957583927843
9	588	15.5	13.892681310116
9	589	15.6	13.896326405359
9	590	15.7	13.897505511523
9	591	15.8	13.943511312031
9	592	15.9	13.872015455046
9	593	16	13.933674729017
9	594	16.1	13.94874460588
9	595	16.2	13.900767277493
9	596	16.3	13.945809090727
9	597	16.4	13.977390510633
9	598	16.5	13.92660452333
9	599	16.6	13.941182080149
9	600	16.7	13.97612690089
9	601	16.8	13.883235122799
9	602	16.9	13.932573633981
9	603	17	13.910393194039
9	604	17.1	13.944788062165
9	605	17.2	13.962823899474
9	606	17.3	13.976550966692
9	607	17.4	13.945287746228
9	608	17.5	13.950244681006
9	609	17.6	13.926170302378
9	610	17.7	13.950471523078
9	611	17.8	13.874207894227
9	612	17.9	13.875295016442
9	613	18	13.927107635697
9	614	18.1	13.971097438484
9	615	18.2	13.873527652258
9	616	18.3	13.987613446994
9	617	18.4	13.97777120647
9	618	18.5	13.920076591424
9	619	18.6	13.969332302387
9	620	18.7	13.970455385267
9	621	18.8	13.926381781844
9	622	18.9	13.91434047902
9	623	19	13.915069057688
9	624	19.1	13.977809513903
9	625	19.2	13.874696735723
9	626	19.3	13.980306561294
9	627	19.4	13.884888166019
9	628	19.5	13.906718112486
9	629	19.6	13.952130639902
9	630	19.7	13.931072328279
9	631	19.8	13.955562250335
9	632	19.9	13.943674064856
9	633	20	13.889412700948
9	634	20.1	13.886791030492
9	635	20.2	13.949469801132
9	636	20.3	13.905310622037
9	637	20.4	13.913366998797
9	638	20.5	13.894605298555
9	639	20.6	13.942337137279
9	640	20.7	13.892468769969
9	641	20.8	13.920837775702
9	642	20.9	13.945787140203
9	643	21	13.870365974943
9	644	21.1	13.906357816393
9	645	21.2	13.878767543044
9	646	21.3	13.99998513046
9	647	21.4	13.98334382179
9	648	21.5	13.960696766193
9	649	21.6	13.870124732999
9	650	21.7	13.980921733968
9	651	21.8	13.969308433086
9	652	21.9	13.98799598258
9	653	22	13.916261341048
9	654	22.1	13.880792862547
9	655	22.2	13.950502696165
9	656	22.3	13.971626602837
9	657	22.4	13.913803772097
9	658	22.5	13.946789372498
9	659	22.6	13.978725405533
9	660	22.7	13.916401959895
9	661	22.8	13.874860984271
9	662	22.9	13.908166127952
9	663	23	13.954933960817
9	664	23.1	13.921990794041
9	665	23.2	13.871072371809
9	666	23.3	13.8794388404
9	667	23.4	13.969442474034
9	668	23.5	13.909435376499
9	669	23.6	13.923859745085
9	670	23.7	13.996932151921
9	671	23.8	13.947130286822
9	672	23.9	13.942770937325
9	673	24	13.982289538218
9	674	24.1	13.976987808398
9	675	24.2	13.929262282304
9	676	24.3	13.967610371476
9	677	24.4	13.932637075251
9	678	24.5	13.873340350282
9	679	24.6	13.900308835888
9	680	24.7	13.990564094596
9	681	24.8	13.878599481699
9	682	24.9	13.931269758255
9	683	25	13.988338559645
9	684	25.1	13.969912603893
9	685	25.2	13.974549736509
9	686	25.3	13.962120940536
9	687	25.4	13.870754820616
9	688	25.5	13.93521565106
9	689	25.6	13.969426534914
9	690	25.7	13.992191983063
9	691	25.8	13.968931772364
9	692	25.9	13.887536275589
9	693	26	13.918217022396
9	694	26.1	13.872754515305
9	695	26.2	13.904456164364
9	696	26.3	13.996777552413
9	697	26.4	13.910515229858
9	698	26.5	13.977010568711
9	699	26.6	13.995953002202
9	700	26.7	13.957938042306
9	701	26.8	13.882673200134
9	702	26.9	13.931182352733
9	703	27	13.962763407941
9	704	27.1	13.878926946626
9	705	27.2	13.927770367244
9	706	27.3	13.874899560967
9	707	27.4	13.951065369023
9	708	27.5	13.870785237367
9	709	27.6	13.996538832549
9	710	27.7	13.902592214954
9	711	27.8	13.935760614302
9	712	27.9	13.949655983343
9	713	28	13.891487037484
9	714	28.1	13.951120817729
9	715	28.2	13.952291647505
9	716	28.3	13.916960896654
9	717	28.4	13.933000324895
9	718	28.5	13.979613960665
9	719	28.6	13.938590713877
9	720	28.7	13.874002946471
9	721	28.8	13.949800228961
9	722	28.9	13.873232698415
9	723	29	13.903262189326
9	724	29.1	13.992628688018
9	725	29.2	13.956418529111
9	726	29.3	13.965836904752
9	727	29.4	13.92259302231
9	728	29.5	13.973148334252
9	729	29.6	13.958902660033
9	730	29.7	13.965591320381
9	731	29.8	13.954987444587
9	732	29.9	13.971572574244
9	733	30	13.968171864366
9	734	30.1	13.990478684762
9	735	30.2	13.909266478063
9	736	30.3	13.947855785056
9	737	30.4	13.972429491917
9	738	30.5	13.955578123622
9	739	30.6	13.965251888523
9	740	30.7	13.900849135863
9	741	30.8	13.951393769654
9	742	30.9	13.901444432521
9	743	31	13.925498493856
9	744	31.1	13.957968654286
9	745	31.2	13.880743449125
9	746	31.3	13.988549252264
9	747	31.4	13.893533128512
9	748	31.5	13.932670853927
9	749	31.6	13.978786484327
9	750	31.7	13.918685236836
9	751	31.8	13.996859879391
9	752	31.9	13.957063103197
9	753	32	13.89799502851
9	754	32.1	13.986381816315
9	755	32.2	13.965568540425
9	756	32.3	13.915802872474
9	757	32.4	13.955882281989
9	758	32.5	13.966001727574
9	759	32.6	13.894131954054
9	760	32.7	13.939439263723
9	761	32.8	13.895030886563
9	762	32.9	13.944669172491
9	763	33	13.935836987325
9	764	33.1	13.932515136835
9	765	33.2	13.890109382761
9	766	33.3	13.913136541881
9	767	33.4	13.952525302295
9	768	33.5	13.870886018584
9	769	33.6	13.993781983219
9	770	33.7	13.920400719366
9	771	33.8	13.965661047404
9	772	33.9	13.959568671116
9	773	34	13.939697268561
9	774	34.1	13.957760079214
9	775	34.2	13.909863842328
9	776	34.3	13.898209783698
9	777	34.4	13.959253222065
9	778	34.5	13.881289257267
9	779	34.6	13.939870217459
9	780	34.7	13.886716318151
9	781	34.8	13.893440605188
9	782	34.9	13.946291074103
9	783	35	13.91101616632
9	784	35.1	13.970714932804
9	785	35.2	13.957875602664
9	786	35.3	13.91857470951
9	787	35.4	13.925014439423
9	788	35.5	13.998830567242
9	789	35.6	13.917755501962
9	790	35.7	13.942317018029
9	791	35.8	13.922459983837
9	792	35.9	13.888216584935
9	793	36	13.982082505967
9	794	36.1	13.919726648615
9	795	36.2	13.919659866849
9	796	36.3	13.958410203329
9	797	36.4	13.935849720552
9	798	36.5	13.905398946586
9	799	36.6	13.981330423423
9	800	36.7	13.986865033233
9	801	36.8	13.995993153953
9	802	36.9	13.971684970346
9	803	37	13.877909754955
9	804	37.1	13.997243233786
9	805	37.2	13.966611096847
9	806	37.3	13.921340390402
9	807	37.4	13.992572501621
9	808	37.5	13.921213036408
9	809	37.6	13.949597930743
9	810	37.7	13.998189407112
9	811	37.8	13.953577422765
9	812	37.9	13.983380627809
9	813	38	13.871770061636
9	814	38.1	13.921129613123
9	815	38.2	13.877853217055
9	816	38.3	13.924192303508
9	817	38.4	13.924239220547
9	818	38.5	13.942513064395
9	819	38.6	13.870896592522
9	820	38.7	13.962930277453
9	821	38.8	13.871311114829
9	822	38.9	13.977002006716
9	823	39	13.887542671487
9	824	39.1	13.983536680513
9	825	39.2	13.978976629768
9	826	39.3	13.973431231964
9	827	39.4	13.952096269033
9	828	39.5	13.887213792137
9	829	39.6	13.960125533973
9	830	39.7	13.947673898537
9	831	39.8	13.955687778171
9	832	39.9	13.99597263444
9	833	40	13.962237893089
9	834	40.1	13.957802944914
9	835	40.2	13.917077671019
9	836	40.3	13.918955893298
9	837	40.4	13.993414979074
9	838	40.5	13.975912950861
9	839	40.6	13.878426039857
9	840	40.7	13.941807543908
9	841	40.8	13.996640170605
9	842	40.9	13.962859666757
9	843	41	13.930886923894
9	844	41.1	13.908056763068
9	845	41.2	13.990691507249
9	846	41.3	13.918111216936
9	847	41.4	13.910105722775
9	848	41.5	13.937701198282
9	849	41.6	13.984778623737
9	850	41.7	13.894144960116
9	851	41.8	13.974843373816
9	852	41.9	13.984588267601
9	853	42	13.88139040503
9	854	42.1	13.932838179669
9	855	42.2	13.959607386198
9	856	42.3	13.958774310646
9	857	42.4	13.958966475022
9	858	42.5	13.911598024508
9	859	42.6	13.895086085226
9	860	42.7	13.996626436054
9	861	42.8	13.946705125954
3	2	0.1	29.6
3	246	0.2	30.99676936835
3	436	0.3	32.387803494878
3	437	0.4	33.781953814397
3	438	0.5	35.173253159571
3	439	0.6	36.567910929167
3	440	0.7	37.955941942286
3	441	0.8	39.352558046239
3	442	0.9	40.751128800177
3	443	1	42.139813656283
3	444	1.1	43.530051648862
3	445	1.2	44.927646129811
3	446	1.3	46.319677696895
3	447	1.4	47.719422098362
3	448	1.5	49.108366093144
3	449	1.6	50.495973816781
3	450	1.7	51.884536252123
3	451	1.8	53.275690391661
3	452	1.9	54.675342359013
3	453	2	56.069016713353
3	454	2.1	57.458390664983
3	455	2.2	58.845845316267
3	456	2.3	60.242966159098
3	457	2.4	61.637851975546
3	458	2.5	63.025333361012
3	459	2.6	64.424299112564
3	460	2.7	65.818275887789
3	461	2.8	67.213707591234
3	462	2.9	68.612314622079
3	463	3	70.010187365019
3	464	3.1	71.400492401058
3	465	3.2	72.78771123243
3	466	3.3	74.175177251806
3	467	3.4	75.563729085348
3	468	3.5	76.962453328167
3	469	3.6	78.356030503042
3	470	3.7	79.753719954547
3	471	3.8	81.148507484421
3	472	3.9	82.543781641645
3	473	4	83.937914852649
3	474	4.1	85.327114033469
3	475	4.2	86.717742634483
3	476	4.3	88.107680723532
3	477	4.4	89.504459735833
3	478	4.5	90.901761553569
3	479	4.6	92.293665414161
3	480	4.7	93.690342181343
3	481	4.8	95.088490346769
3	482	4.9	96.48300761996
3	483	5	97.880392328309
3	484	5.1	99.273101062129
3	485	5.2	100.67204523158
3	486	5.3	102.07048624496
3	487	5.4	103.45809110514
3	488	5.5	104.8565281531
3	489	5.6	106.25580355565
3	490	5.7	107.64392125014
3	491	5.8	109.03612727584
3	492	5.9	110.42751480086
3	493	6	111.81811583164
3	494	6.1	113.21403098807
3	495	6.2	114.60141722171
3	496	6.3	115.99316346948
3	497	6.4	117.38248306655
3	498	6.5	118.76989836321
3	499	6.6	120.16304019931
3	500	6.7	121.55425628361
3	501	6.8	122.94994708609
3	502	6.9	124.34313220593
3	503	7	125.73853043734
3	504	7.1	127.13795000482
3	505	7.2	128.53692261095
3	506	7.3	129.93070877789
3	507	7.4	131.32348189095
3	508	7.5	132.72213999186
3	509	7.6	134.11998466381
3	510	7.7	135.51837213011
3	511	7.8	136.91453403835
3	512	7.9	138.3028086065
3	513	8	139.69188069617
3	514	8.1	141.09167901083
3	515	8.2	142.48696570466
3	516	8.3	143.88485167451
3	517	8.4	145.28042109284
3	518	8.5	146.6708825238
3	519	8.6	148.06164730105
3	520	8.7	149.46065956058
3	521	8.8	150.86024735978
3	522	8.9	152.25543505632
3	523	9	153.64929401404
3	524	9.1	155.04779593075
3	525	9.2	156.4382854346
3	526	9.3	157.83641304333
3	527	9.4	159.22636123824
3	528	9.5	160.62018061305
3	529	9.6	162.01704443079
3	530	9.7	163.40538396066
3	531	9.8	164.80140339912
3	532	9.9	166.19141000939
3	533	10	167.5896335641
3	534	10.1	168.97675018808
3	535	10.2	170.36900562377
3	536	10.3	171.75873328385
3	537	10.4	173.15661988859
3	538	10.5	174.54488832386
3	539	10.6	175.93445807006
3	540	10.7	177.32377601842
3	541	10.8	178.71727437202
3	542	10.9	180.10468324711
3	543	11	181.50390982081
3	544	11.1	182.90175152065
3	545	11.2	184.29665726555
3	546	11.3	185.69493548947
3	547	11.4	187.08687840802
3	548	11.5	188.47713798678
3	549	11.6	189.87469149285
3	550	11.7	191.26643944974
3	551	11.8	192.66087689961
3	552	11.9	194.04829116135
3	553	12	195.4471344
3	554	12.1	196.84351326963
3	555	12.2	198.23398907393
3	556	12.3	199.62803823164
3	557	12.4	201.02292534005
3	558	12.5	202.41116710008
3	559	12.6	203.80669332703
3	560	12.7	205.19486577774
3	561	12.8	206.58970627617
3	562	12.9	207.98319685839
3	563	13	209.38297102212
3	564	13.1	210.77192593623
3	565	13.2	212.16583719132
3	566	13.3	213.55651751312
3	567	13.4	214.94490525641
3	568	13.5	216.3325179281
3	569	13.6	217.73041759076
3	570	13.7	219.12661501913
3	571	13.8	220.51563704607
3	572	13.9	221.90906969747
3	573	14	223.3054938096
3	574	14.1	224.69443999759
3	575	14.2	226.08444647469
3	576	14.3	227.47501040784
3	577	14.4	228.86416837374
3	578	14.5	230.26396788909
3	579	14.6	231.65225103691
3	580	14.7	233.05203941833
3	581	14.8	234.43940569441
3	582	14.9	235.82956486687
3	583	15	237.2239873967
3	584	15.1	238.61883184032
3	585	15.2	240.00991274438
3	586	15.3	241.39960568503
3	587	15.4	242.79536407781
3	588	15.5	244.18463220882
3	589	15.6	245.57426484936
3	590	15.7	246.96401540051
3	591	15.8	248.35836653171
3	592	15.9	249.74556807722
3	593	16	251.13893555012
3	594	16.1	252.53381001071
3	595	16.2	253.92388673846
3	596	16.3	255.31846764753
3	597	16.4	256.71620669859
3	598	16.5	258.10886715093
3	599	16.6	259.50298535894
3	600	16.7	260.90059804903
3	601	16.8	262.28892156131
3	602	16.9	263.68217892471
3	603	17	265.07321824411
3	604	17.1	266.46769705033
3	605	17.2	267.86397944028
3	606	17.3	269.26163453695
3	607	17.4	270.65616331157
3	608	17.5	272.05118777967
3	609	17.6	273.44380480991
3	610	17.7	274.83885196222
3	611	17.8	276.22627275164
3	612	17.9	277.61380225328
3	613	18	279.00651301685
3	614	18.1	280.4036227607
3	615	18.2	281.79097552593
3	616	18.3	283.18973687063
3	617	18.4	284.58751399127
3	618	18.5	285.97952165041
3	619	18.6	287.37645488065
3	620	18.7	288.77350041918
3	621	18.8	290.16613859736
3	622	18.9	291.55757264527
3	623	19	292.94907955104
3	624	19.1	294.34686050243
3	625	19.2	295.734330176
3	626	19.3	297.13236083213
3	627	19.4	298.52084964873
3	628	19.5	299.91152145998
3	629	19.6	301.30673452397
3	630	19.7	302.6998417568
3	631	19.8	304.09539798183
3	632	19.9	305.48976538832
3	633	20	306.87870665841
3	634	20.1	308.26738576146
3	635	20.2	309.66233274157
3	636	20.3	311.05286380378
3	637	20.4	312.44420050366
3	638	20.5	313.83366103351
3	639	20.6	315.22789474724
3	640	20.7	316.61714162424
3	641	20.8	318.00922540181
3	642	20.9	319.40380411583
3	643	21	320.79084071332
3	644	21.1	322.18147649496
3	645	21.2	323.56935324926
3	646	21.3	324.96935176231
3	647	21.4	326.36768614449
3	648	21.5	327.76375582111
3	649	21.6	329.15076829441
3	650	21.7	330.54886046781
3	651	21.8	331.94579131111
3	652	21.9	333.34459090937
3	653	22	334.73621704348
3	654	22.1	336.12429632973
3	655	22.2	337.51934659935
3	656	22.3	338.91650925963
3	657	22.4	340.30788963684
3	658	22.5	341.70256857409
3	659	22.6	343.10044111464
3	660	22.7	344.49208131063
3	661	22.8	345.87956740906
3	662	22.9	347.27038402186
3	663	23	348.66587741794
3	664	23.1	350.05807649734
3	665	23.2	351.44518373452
3	666	23.3	352.83312761856
3	667	23.4	354.23007186597
3	668	23.5	355.62101540362
3	669	23.6	357.01340137813
3	670	23.7	358.41309459332
3	671	23.8	359.807807622
3	672	23.9	361.20208471573
3	673	24	362.60031366955
3	674	24.1	363.99801245039
3	675	24.2	365.39093867862
3	676	24.3	366.78769971577
3	677	24.4	368.1809634233
3	678	24.5	369.56829745832
3	679	24.6	370.95832834191
3	680	24.7	372.35738475137
3	681	24.8	373.74524469954
3	682	24.9	375.13837167537
3	683	25	376.53720553133
3	684	25.1	377.93419679172
3	685	25.2	379.33165176537
3	686	25.3	380.72786385943
3	687	25.4	382.11493934149
3	688	25.5	383.50846090659
3	689	25.6	384.90540356009
3	690	25.7	386.30462275839
3	691	25.8	387.70151593563
3	692	25.9	389.09026956319
3	693	26	390.48209126543
3	694	26.1	391.86936671696
3	695	26.2	393.25981233339
3	696	26.3	394.65949008864
3	697	26.4	396.05054161162
3	698	26.5	397.44824266849
3	699	26.6	398.84783796871
3	700	26.7	400.24363177294
3	701	26.8	401.63189909296
3	702	26.9	403.02501732823
3	703	27	404.42129366902
3	704	27.1	405.80918636369
3	705	27.2	407.20196340041
3	706	27.3	408.58945335651
3	707	27.4	409.98455989341
3	708	27.5	411.37163841715
3	709	27.6	412.7712923004
3	710	27.7	414.1615515219
3	711	27.8	415.55512758333
3	712	27.9	416.95009318166
3	713	28	418.33924188541
3	714	28.1	419.73435396718
3	715	28.2	421.12958313193
3	716	28.3	422.5212792216
3	717	28.4	423.91457925409
3	718	28.5	425.31254065015
3	719	28.6	426.70639972154
3	720	28.7	428.09380001619
3	721	28.8	429.48878003909
3	722	28.9	430.87610330893
3	723	29	432.26642952786
3	724	29.1	433.66569239666
3	725	29.2	435.06133424957
3	726	29.3	436.45791794005
3	727	29.4	437.85017724228
3	728	29.5	439.2474920757
3	729	29.6	440.64338234171
3	730	29.7	442.03994147374
3	731	29.8	443.4354402182
3	732	29.9	444.83259747563
3	733	30	446.22941466206
3	734	30.1	447.62846253054
3	735	30.2	449.01938917835
3	736	30.3	450.41417475685
3	737	30.4	451.81141770604
3	738	30.5	453.20697551841
3	739	30.6	454.60350070726
3	740	30.7	455.99358562085
3	741	30.8	457.38872499781
3	742	30.9	458.77886944106
3	743	31	460.17141929045
3	744	31.1	461.56721615588
3	745	31.2	462.95529050079
3	746	31.3	464.35414542602
3	747	31.4	465.74349873887
3	748	31.5	467.13676582426
3	749	31.6	468.53464447269
3	750	31.7	469.92651299638
3	751	31.8	471.32619898432
3	752	31.9	472.72190529464
3	753	32	474.11170479749
3	754	32.1	475.51034297912
3	755	32.2	476.90689983316
3	756	32.3	478.29848012041
3	757	32.4	479.69406834861
3	758	32.5	481.09066852136
3	759	32.6	482.48008171677
3	760	32.7	483.87402564314
3	761	32.8	485.2635287318
3	762	32.9	486.65799564905
3	763	33	488.05157934778
3	764	33.1	489.44483086146
3	765	33.2	490.83384179974
3	766	33.3	492.22515545393
3	767	33.4	493.62040798416
3	768	33.5	495.00749658601
3	769	33.6	496.40687478434
3	770	33.7	497.79891485627
3	771	33.8	499.19548096101
3	772	33.9	500.59143782813
3	773	34	501.98540755498
3	774	34.1	503.3811835629
3	775	34.2	504.77216994714
3	776	34.3	506.16199092551
3	777	34.4	507.55791624771
3	778	34.5	508.94604517344
3	779	34.6	510.34003219518
3	780	34.7	511.728703827
3	781	34.8	513.11804788752
3	782	34.9	514.51267699493
3	783	35	515.90377861156
3	784	35.1	517.30085010484
3	785	35.2	518.69663766511
3	786	35.3	520.08849513606
3	787	35.4	521.48099658
3	788	35.5	522.88087963673
3	789	35.6	524.27265518692
3	790	35.7	525.66688688872
3	791	35.8	527.05913288711
3	792	35.9	528.4479545456
3	793	36	529.8461627962
3	794	36.1	531.23813546106
3	795	36.2	532.63010144774
3	796	36.3	534.02594246808
3	797	36.4	535.41952744013
3	798	36.5	536.81006733479
3	799	36.6	538.20820037713
3	800	36.7	539.60688688046
3	801	36.8	541.00648619585
3	802	36.9	542.40365469289
3	803	37	543.79144566838
3	804	37.1	545.19116999176
3	805	37.2	546.58783110145
3	806	37.3	547.97996514049
3	807	37.4	549.37922239065
3	808	37.5	550.77134369429
3	809	37.6	552.16630348736
3	810	37.7	553.56612242807
3	811	37.8	554.96148017035
3	812	37.9	556.35981823313
3	813	38	557.7469952393
3	814	38.1	559.13910820061
3	815	38.2	560.52689352231
3	816	38.3	561.91931275266
3	817	38.4	563.31173667472
3	818	38.5	564.70598798116
3	819	38.6	566.09307764041
3	820	38.7	567.48937066816
3	821	38.8	568.87650177964
3	822	38.9	570.27420198031
3	823	39	571.66295624746
3	824	39.1	573.06130991551
3	825	39.2	574.45920757849
3	826	39.3	575.85655070168
3	827	39.4	577.25176032859
3	828	39.5	578.6404817078
3	829	39.6	580.0364942612
3	830	39.7	581.43126165105
3	831	39.8	582.82683042887
3	832	39.9	584.22642769231
3	833	40	585.62265148162
3	834	40.1	587.01843177611
3	835	40.2	588.41013954321
3	836	40.3	589.80203513254
3	837	40.4	591.20137663045
3	838	40.5	592.59896792554
3	839	40.6	593.98681052952
3	840	40.7	595.38099128391
3	841	40.8	596.78065530097
3	842	40.9	598.17694126765
3	843	41	599.57002996004
3	844	41.1	600.96083563635
3	845	41.2	602.35990478707
3	846	41.3	603.75171590877
3	847	41.4	605.14272648104
3	848	41.5	606.53649660087
3	849	41.6	607.93497446324
3	850	41.7	609.32438895926
3	851	41.8	610.72187329664
3	852	41.9	612.1203321234
3	853	42	613.5084711639
3	854	42.1	614.90175498187
3	855	42.2	616.29771572049
3	856	42.3	617.69359315155
3	857	42.4	619.08948979905
3	858	42.5	620.4806496015
3	859	42.6	621.87015821003
3	860	42.7	623.26982085363
3	861	42.8	624.66449136623
2	2	0.1	323.4
2	246	0.2	323.4
2	436	0.3	323.4
2	437	0.4	323.4
2	438	0.5	323.4
2	439	0.6	323.4
2	440	0.7	323.4
2	441	0.8	323.4
2	442	0.9	323.4
2	443	1	323.4
2	444	1.1	323.4
2	445	1.2	323.4
2	446	1.3	323.4
2	447	1.4	323.4
2	448	1.5	323.4
2	449	1.6	323.4
2	450	1.7	323.4
2	451	1.8	323.4
2	452	1.9	323.4
2	453	2	323.4
2	454	2.1	323.4
2	455	2.2	323.4
2	456	2.3	323.4
2	457	2.4	323.4
2	458	2.5	323.4
2	459	2.6	323.4
2	460	2.7	323.4
2	461	2.8	323.4
2	462	2.9	323.4
2	463	3	323.4
2	464	3.1	323.4
2	465	3.2	323.4
2	466	3.3	323.4
2	467	3.4	323.4
2	468	3.5	323.4
2	469	3.6	323.4
2	470	3.7	323.4
2	471	3.8	323.4
2	472	3.9	323.4
2	473	4	323.4
2	474	4.1	323.4
2	475	4.2	323.4
2	476	4.3	323.4
2	477	4.4	323.4
2	478	4.5	323.4
2	479	4.6	323.4
2	480	4.7	323.4
2	481	4.8	323.4
2	482	4.9	323.4
2	483	5	323.4
2	484	5.1	323.4
2	485	5.2	323.4
2	486	5.3	323.4
2	487	5.4	323.4
2	488	5.5	323.4
2	489	5.6	323.4
2	490	5.7	323.4
2	491	5.8	323.4
2	492	5.9	323.4
2	493	6	323.4
2	494	6.1	323.4
2	495	6.2	323.4
2	496	6.3	323.4
2	497	6.4	323.4
2	498	6.5	323.4
2	499	6.6	323.4
2	500	6.7	323.4
2	501	6.8	323.4
2	502	6.9	323.4
2	503	7	323.4
2	504	7.1	323.4
2	505	7.2	323.4
2	506	7.3	323.4
2	507	7.4	323.4
2	508	7.5	323.4
2	509	7.6	323.4
2	510	7.7	323.4
2	511	7.8	323.4
2	512	7.9	323.4
2	513	8	323.4
2	514	8.1	323.4
2	515	8.2	323.4
2	516	8.3	323.4
2	517	8.4	323.4
2	518	8.5	323.4
2	519	8.6	323.4
2	520	8.7	323.4
2	521	8.8	323.4
2	522	8.9	323.4
2	523	9	323.4
2	524	9.1	323.4
2	525	9.2	323.4
2	526	9.3	323.4
2	527	9.4	323.4
2	528	9.5	323.4
2	529	9.6	323.4
2	530	9.7	323.4
2	531	9.8	323.4
2	532	9.9	323.4
2	533	10	323.4
2	534	10.1	323.4
2	535	10.2	323.4
2	536	10.3	323.4
2	537	10.4	323.4
2	538	10.5	323.4
2	539	10.6	323.4
2	540	10.7	323.4
2	541	10.8	323.4
2	542	10.9	323.4
2	543	11	323.4
2	544	11.1	323.4
2	545	11.2	323.4
2	546	11.3	323.4
2	547	11.4	323.4
2	548	11.5	323.4
2	549	11.6	323.4
2	550	11.7	323.4
2	551	11.8	323.4
2	552	11.9	323.4
2	553	12	323.4
2	554	12.1	323.4
2	555	12.2	323.4
2	556	12.3	323.4
2	557	12.4	323.4
2	558	12.5	323.4
2	559	12.6	323.4
2	560	12.7	323.4
2	561	12.8	323.4
2	562	12.9	323.4
2	563	13	323.4
2	564	13.1	323.4
2	565	13.2	323.4
2	566	13.3	323.4
2	567	13.4	323.4
2	568	13.5	323.4
2	569	13.6	323.4
2	570	13.7	323.4
2	571	13.8	323.4
2	572	13.9	323.4
2	573	14	323.4
2	574	14.1	323.4
2	575	14.2	323.4
2	576	14.3	323.4
2	577	14.4	323.4
2	578	14.5	323.4
2	579	14.6	323.4
2	580	14.7	323.4
2	581	14.8	323.4
2	582	14.9	323.4
2	583	15	323.4
2	584	15.1	323.4
2	585	15.2	323.4
2	586	15.3	323.4
2	587	15.4	323.4
2	588	15.5	323.4
2	589	15.6	323.4
2	590	15.7	323.4
2	591	15.8	323.4
2	592	15.9	323.4
2	593	16	323.4
2	594	16.1	323.4
2	595	16.2	323.4
2	596	16.3	323.4
2	597	16.4	323.4
2	598	16.5	323.4
2	599	16.6	323.4
2	600	16.7	323.4
2	601	16.8	323.4
2	602	16.9	323.4
2	603	17	323.4
2	604	17.1	323.4
2	605	17.2	323.4
2	606	17.3	323.4
2	607	17.4	323.4
2	608	17.5	323.4
2	609	17.6	323.4
2	610	17.7	323.4
2	611	17.8	323.4
2	612	17.9	323.4
2	613	18	323.4
2	614	18.1	323.4
2	615	18.2	323.4
2	616	18.3	323.4
2	617	18.4	323.4
2	618	18.5	323.4
2	619	18.6	323.4
2	620	18.7	323.4
2	621	18.8	323.4
2	622	18.9	323.4
2	623	19	323.4
2	624	19.1	323.4
2	625	19.2	323.4
2	626	19.3	323.4
2	627	19.4	323.4
2	628	19.5	323.4
2	629	19.6	323.4
2	630	19.7	323.4
2	631	19.8	323.4
2	632	19.9	323.4
2	633	20	323.4
2	634	20.1	323.4
2	635	20.2	323.4
2	636	20.3	323.4
2	637	20.4	323.4
2	638	20.5	323.4
2	639	20.6	323.4
2	640	20.7	323.4
2	641	20.8	323.4
2	642	20.9	323.4
2	643	21	323.4
2	644	21.1	323.4
2	645	21.2	323.4
2	646	21.3	323.4
2	647	21.4	323.4
2	648	21.5	323.4
2	649	21.6	323.4
2	650	21.7	323.4
2	651	21.8	323.4
2	652	21.9	323.4
2	653	22	323.4
2	654	22.1	323.4
2	655	22.2	323.4
2	656	22.3	323.4
2	657	22.4	323.4
2	658	22.5	323.4
2	659	22.6	323.4
2	660	22.7	323.4
2	661	22.8	323.4
2	662	22.9	323.4
2	663	23	323.4
2	664	23.1	323.4
2	665	23.2	323.4
2	666	23.3	323.4
2	667	23.4	323.4
2	668	23.5	323.4
2	669	23.6	323.4
2	670	23.7	323.4
2	671	23.8	323.4
2	672	23.9	323.4
2	673	24	323.4
2	674	24.1	323.4
2	675	24.2	323.4
2	676	24.3	323.4
2	677	24.4	323.4
2	678	24.5	323.4
2	679	24.6	323.4
2	680	24.7	323.4
2	681	24.8	323.4
2	682	24.9	323.4
2	683	25	323.4
2	684	25.1	323.4
2	685	25.2	323.4
2	686	25.3	323.4
2	687	25.4	323.4
2	688	25.5	323.4
2	689	25.6	323.4
2	690	25.7	323.4
2	691	25.8	323.4
2	692	25.9	323.4
2	693	26	323.4
2	694	26.1	323.4
2	695	26.2	323.4
2	696	26.3	323.4
2	697	26.4	323.4
2	698	26.5	323.4
2	699	26.6	323.4
2	700	26.7	323.4
2	701	26.8	323.4
2	702	26.9	323.4
2	703	27	323.4
2	704	27.1	323.4
2	705	27.2	323.4
2	706	27.3	323.4
2	707	27.4	323.4
2	708	27.5	323.4
2	709	27.6	323.4
2	710	27.7	323.4
2	711	27.8	323.4
2	712	27.9	323.4
2	713	28	323.4
2	714	28.1	323.4
2	715	28.2	323.4
2	716	28.3	323.4
2	717	28.4	323.4
2	718	28.5	323.4
2	719	28.6	323.4
2	720	28.7	323.4
2	721	28.8	323.4
2	722	28.9	323.4
2	723	29	323.4
2	724	29.1	323.4
2	725	29.2	323.4
2	726	29.3	323.4
2	727	29.4	323.4
2	728	29.5	323.4
2	729	29.6	323.4
2	730	29.7	323.4
2	731	29.8	323.4
2	732	29.9	323.4
2	733	30	323.4
2	734	30.1	323.4
2	735	30.2	323.4
2	736	30.3	323.4
2	737	30.4	323.4
2	738	30.5	323.4
2	739	30.6	323.4
2	740	30.7	323.4
2	741	30.8	323.4
2	742	30.9	323.4
2	743	31	323.4
2	744	31.1	323.4
2	745	31.2	323.4
2	746	31.3	323.4
2	747	31.4	323.4
2	748	31.5	323.4
2	749	31.6	323.4
2	750	31.7	323.4
2	751	31.8	323.4
2	752	31.9	323.4
2	753	32	323.4
2	754	32.1	323.4
2	755	32.2	323.4
2	756	32.3	323.4
2	757	32.4	323.4
2	758	32.5	323.4
2	759	32.6	323.4
2	760	32.7	323.4
2	761	32.8	323.4
2	762	32.9	323.4
2	763	33	323.4
2	764	33.1	323.4
2	765	33.2	323.4
2	766	33.3	323.4
2	767	33.4	323.4
2	768	33.5	323.4
2	769	33.6	323.4
2	770	33.7	323.4
2	771	33.8	323.4
2	772	33.9	323.4
2	773	34	323.4
2	774	34.1	323.4
2	775	34.2	323.4
2	776	34.3	323.4
2	777	34.4	323.4
2	778	34.5	323.4
2	779	34.6	323.4
2	780	34.7	323.4
2	781	34.8	323.4
2	782	34.9	323.4
2	783	35	323.4
2	784	35.1	323.4
2	785	35.2	323.4
2	786	35.3	323.4
2	787	35.4	323.4
2	788	35.5	323.4
2	789	35.6	323.4
2	790	35.7	323.4
2	791	35.8	323.4
2	792	35.9	323.4
2	793	36	323.4
2	794	36.1	323.4
2	795	36.2	323.4
2	796	36.3	323.4
2	797	36.4	323.4
2	798	36.5	323.4
2	799	36.6	323.4
2	800	36.7	323.4
2	801	36.8	323.4
2	802	36.9	323.4
2	803	37	323.4
2	804	37.1	323.4
2	805	37.2	323.4
2	806	37.3	323.4
2	807	37.4	323.4
2	808	37.5	323.4
2	809	37.6	323.4
2	810	37.7	323.4
2	811	37.8	323.4
2	812	37.9	323.4
2	813	38	323.4
2	814	38.1	323.4
2	815	38.2	323.4
2	816	38.3	323.4
2	817	38.4	323.4
2	818	38.5	323.4
2	819	38.6	323.4
2	820	38.7	323.4
2	821	38.8	323.4
2	822	38.9	323.4
2	823	39	323.4
2	824	39.1	323.4
2	825	39.2	323.4
2	826	39.3	323.4
2	827	39.4	323.4
2	828	39.5	323.4
2	829	39.6	323.4
2	830	39.7	323.4
2	831	39.8	323.4
2	832	39.9	323.4
2	833	40	323.4
2	834	40.1	323.4
2	835	40.2	323.4
2	836	40.3	323.4
2	837	40.4	323.4
2	838	40.5	323.4
2	839	40.6	323.4
2	840	40.7	323.4
2	841	40.8	323.4
2	842	40.9	323.4
2	843	41	323.4
2	844	41.1	323.4
2	845	41.2	323.4
2	846	41.3	323.4
2	847	41.4	323.4
2	848	41.5	323.4
2	849	41.6	323.4
2	850	41.7	323.4
2	851	41.8	323.4
2	852	41.9	323.4
2	853	42	323.4
2	854	42.1	323.4
2	855	42.2	323.4
2	856	42.3	323.4
2	857	42.4	323.4
2	858	42.5	323.4
2	859	42.6	323.4
2	860	42.7	323.4
2	861	42.8	323.4
17	436	0.3	1.3479733430308
17	437	0.4	0.973
17	438	0.5	3.5917301310371
17	439	0.6	3.4867564069022
17	440	0.7	0.973
17	441	0.8	1.0934792909641
17	442	0.9	2.8415311687172
17	443	1	3.9414663844048
17	444	1.1	1.6534438015874
17	445	1.2	0.973
17	446	1.3	2.7910463383087
17	447	1.4	3.4947631054672
17	448	1.5	2.4148397515983
17	449	1.6	2.4138239036799
17	450	1.7	1.3550227662099
17	451	1.8	2.992463282663
17	452	1.9	0.973
17	453	2	3.7580494008244
17	454	2.1	0.973
17	455	2.2	5.274346036583
17	456	2.3	0.973
17	457	2.4	2.4623911596643
17	458	2.5	1.1558216261955
17	459	2.6	1.9378223589367
17	460	2.7	2.000600597241
17	461	2.8	3.1928579948983
17	462	2.9	3.0013027496317
17	463	3	0.973
17	464	3.1	3.8577342286559
17	465	3.2	0.973
17	466	3.3	1.5541064570852
17	467	3.4	4.9379432422793
17	468	3.5	0.973
17	469	3.6	1.8246884900391
17	470	3.7	3.8424208542049
17	471	3.8	2.6468300201401
17	472	3.9	1.5391599111028
17	473	4	3.1644346208864
17	474	4.1	0.973
17	475	4.2	0.973
17	476	4.3	3.7687431323226
17	477	4.4	1.358528720404
17	478	4.5	0.973
17	479	4.6	3.3618034281681
17	480	4.7	3.0091870613619
17	481	4.8	1.8068185252522
17	482	4.9	1.9038564054859
17	483	5	0.973
17	484	5.1	4.2766928520061
17	485	5.2	3.5560808029304
17	486	5.3	0.973
17	487	5.4	2.3781408868117
17	488	5.5	2.9597919320852
17	489	5.6	4.4318198527795
17	490	5.7	2.6779056578156
17	491	5.8	0.973
17	492	5.9	1.6021990256824
17	493	6	3.4825568862662
17	494	6.1	2.0672929112319
17	495	6.2	2.16917043706
17	496	6.3	0.973
17	497	6.4	3.5404982038241
17	498	6.5	0.973
17	499	6.6	1.9582695789552
17	500	6.7	2.0353610360402
17	501	6.8	1.8843856303145
17	502	6.9	4.9304778077909
17	503	7	0.973
17	504	7.1	1.5617124690092
17	505	7.2	3.9670818835217
17	506	7.3	1.5305556415566
17	507	7.4	1.1285354945203
17	508	7.5	2.0154591881113
17	509	7.6	1.5456981849808
17	510	7.7	1.8072391266106
17	511	7.8	2.854915650972
17	512	7.9	1.6739667618432
17	513	8	3.8426641615748
17	514	8.1	0.973
17	515	8.2	3.5249510119501
17	516	8.3	1.7725168842911
17	517	8.4	3.3685632738379
17	518	8.5	0.973
17	519	8.6	0.973
17	520	8.7	2.6282970867972
17	521	8.8	5.083957703035
17	522	8.9	2.1010818562771
17	523	9	1.414017927183
17	524	9.1	1.2336391795591
17	525	9.2	0.973
17	526	9.3	4.9574701739473
17	527	9.4	0.973
17	528	9.5	0.973
17	529	9.6	5.0517539584144
17	530	9.7	2.6508953844169
17	531	9.8	0.973
17	532	9.9	2.8203818855476
17	533	10	2.5062483140056
17	534	10.1	0.973
17	535	10.2	5.2317751654832
17	536	10.3	0.973
17	537	10.4	5.2094210462511
17	538	10.5	0.973
17	539	10.6	1.7984109424966
17	540	10.7	3.8411482878049
17	541	10.8	2.0566387776709
17	542	10.9	2.0278677546307
17	543	11	1.6438877770253
17	544	11.1	2.9761202875262
17	545	11.2	2.011754036034
17	546	11.3	1.2358959804533
17	547	11.4	0.973
17	548	11.5	2.5007527002313
17	549	11.6	0.973
17	550	11.7	3.5444372558245
17	551	11.8	3.385697961754
17	552	11.9	1.8828866198291
17	553	12	0.973
17	554	12.1	4.3263348690081
17	555	12.2	2.9488713521846
17	556	12.3	1.4391747101328
17	557	12.4	0.973
17	558	12.5	3.5141469992168
17	559	12.6	0.973
17	560	12.7	3.0878476624669
17	561	12.8	3.3343797865266
17	562	12.9	0.973
17	563	13	2.2676109021376
17	564	13.1	2.1829777386368
17	565	13.2	3.2072039654022
17	566	13.3	0.973
17	567	13.4	0.973
17	568	13.5	1.9781767308076
17	569	13.6	6.0847206710919
17	570	13.7	1.2073624500758
17	571	13.8	0.973
17	572	13.9	4.0202076103087
17	573	14	0.973
17	574	14.1	2.8382701721232
17	575	14.2	0.973
17	576	14.3	2.2012687388683
17	577	14.4	5.6753493913851
17	578	14.5	0.973
17	579	14.6	0.973
17	580	14.7	2.1484932233932
17	581	14.8	5.6439702924073
17	582	14.9	0.973
17	583	15	6.2211886049889
17	584	15.1	1.2639707892685
17	585	15.2	0.973
17	586	15.3	4.4430068845136
17	587	15.4	0.973
17	588	15.5	3.793531669427
17	589	15.6	0.973
17	590	15.7	4.9002883390047
17	591	15.8	0.973
17	592	15.9	4.7215180613348
17	593	16	0.973
17	594	16.1	0.973
17	595	16.2	4.1513422899692
17	596	16.3	1.4279530560641
17	597	16.4	1.1871075065214
17	598	16.5	1.6393150499955
17	599	16.6	1.8022245525824
17	600	16.7	4.3280254059544
17	601	16.8	3.1480588764263
17	602	16.9	0.973
17	603	17	3.5949289852003
17	604	17.1	3.045047344366
17	605	17.2	3.6345348744622
17	606	17.3	0.973
17	607	17.4	5.4215319206296
17	608	17.5	0.973
17	609	17.6	0.973
17	610	17.7	4.7330193825473
17	611	17.8	0.973
17	612	17.9	3.6715994388345
17	613	18	0.973
17	614	18.1	2.7420192467696
17	615	18.2	2.5428229210303
17	616	18.3	1.5007980415652
17	617	18.4	4.2614092108126
17	618	18.5	0.973
17	619	18.6	3.2895576615015
17	620	18.7	1.3410409996446
17	621	18.8	0.973
17	622	18.9	5.1346780557528
17	623	19	2.3665303382149
17	624	19.1	0.973
17	625	19.2	0.973
17	626	19.3	2.9353039646821
17	627	19.4	1.8645499072791
17	628	19.5	0.973
17	629	19.6	3.4010673265874
17	630	19.7	3.0851173238543
17	631	19.8	1.5340712143856
17	632	19.9	0.973
17	633	20	4.5934990641297
17	634	20.1	0.973
17	635	20.2	0.973
17	636	20.3	4.2410827276056
17	637	20.4	0.973
17	638	20.5	5.5019036676246
17	639	20.6	0.973
17	640	20.7	3.6627279934301
17	641	20.8	0.973
17	642	20.9	2.5744819939075
17	643	21	2.773797970834
17	644	21.1	3.6541238062322
17	645	21.2	0.973
17	646	21.3	2.1809210203986
17	647	21.4	1.7281425874556
17	648	21.5	1.7097263337375
17	649	21.6	5.480887736732
17	650	21.7	0.973
17	651	21.8	2.9608808359448
17	652	21.9	3.3655621426915
17	653	22	0.973
17	654	22.1	2.3034970781355
17	655	22.2	4.2906983479448
17	656	22.3	1.7649452595198
17	657	22.4	3.2355531800346
17	658	22.5	0.973
17	659	22.6	2.9295570018244
17	660	22.7	3.2241094516837
17	661	22.8	2.1968937883356
17	662	22.9	2.5566116982703
17	663	23	1.1195250845057
17	664	23.1	2.9585594593755
17	665	23.2	0.973
17	666	23.3	1.4706375044321
17	667	23.4	2.0523997904219
17	668	23.5	2.1028744142865
17	669	23.6	2.3049935652366
17	670	23.7	2.4528603204268
17	671	23.8	1.7591382298562
17	672	23.9	1.5562321658321
17	673	24	4.6591862692989
17	674	24.1	2.5250846373871
17	675	24.2	0.973
17	676	24.3	4.4317577322646
17	677	24.4	2.542078669753
17	678	24.5	0.973
17	679	24.6	1.7849525669033
17	680	24.7	1.6330247387901
17	681	24.8	1.5528390197133
17	682	24.9	4.0556550203136
17	683	25	1.5709689720398
17	684	25.1	3.0506700437532
17	685	25.2	0.973
17	686	25.3	2.9892305682636
17	687	25.4	0.973
17	688	25.5	0.973
17	689	25.6	2.6991947797112
17	690	25.7	4.3381626719808
17	691	25.8	0.973
17	692	25.9	2.726869483713
17	693	26	4.886797236726
17	694	26.1	0.973
17	695	26.2	0.973
17	696	26.3	4.0071798419607
17	697	26.4	0.973
17	698	26.5	2.1784172028804
17	699	26.6	1.2286400363659
17	700	26.7	4.4813032348712
17	701	26.8	1.6445419316922
17	702	26.9	0.973
17	703	27	2.2863662602778
17	704	27.1	3.2188815577728
17	705	27.2	0.973
17	706	27.3	3.6109485371694
17	707	27.4	1.6260304174401
17	708	27.5	1.1104678892371
17	709	27.6	1.4691672186977
17	710	27.7	4.5081608993487
17	711	27.8	1.1702505099197
17	712	27.9	3.8862600604591
17	713	28	1.5449043659295
17	714	28.1	0.973
17	715	28.2	2.6866012267601
17	716	28.3	1.1651340193516
17	717	28.4	3.6119429315192
17	718	28.5	2.6180193490673
17	719	28.6	0.973
17	720	28.7	1.5256133678943
17	721	28.8	5.0630383487505
17	722	28.9	2.14275348997
17	723	29	0.973
17	724	29.1	2.120491038147
17	725	29.2	2.6964061963902
17	726	29.3	0.973
17	727	29.4	2.2368094541111
17	728	29.5	2.3197876375187
17	729	29.6	3.172873678412
17	730	29.7	3.8844277798981
17	731	29.8	0.973
17	732	29.9	0.973
17	733	30	2.7998926716717
17	734	30.1	3.7962802806131
17	735	30.2	0.973
17	736	30.3	2.0935029769684
17	737	30.4	4.6444099083636
17	738	30.5	2.0626267507407
17	739	30.6	0.973
17	740	30.7	4.0850190061964
17	741	30.8	3.7937637449784
17	742	30.9	0.973
17	743	31	1.7381908541634
17	744	31.1	5.6844735826556
17	745	31.2	0.973
17	746	31.3	1.5031409119891
17	747	31.4	2.2277369842926
17	748	31.5	3.7359310276046
17	749	31.6	3.4365115689377
17	750	31.7	0.973
17	751	31.8	2.3604900614629
17	752	31.9	2.840486181218
17	753	32	1.4537225708365
17	754	32.1	5.1275717869219
17	755	32.2	1.7537197577635
17	756	32.3	2.4496461607968
17	757	32.4	0.973
17	758	32.5	0.973
17	759	32.6	3.8129591309375
17	760	32.7	2.1109755584846
17	761	32.8	0.973
17	762	32.9	5.7008479540151
17	763	33	2.0607194974917
17	764	33.1	0.973
17	765	33.2	2.5909138463785
17	766	33.3	0.973
17	767	33.4	3.2510814370422
17	768	33.5	1.3610417830566
17	769	33.6	2.3049050406367
17	770	33.7	1.8153616458316
17	771	33.8	1.2908774949015
17	772	33.9	4.9310469180598
17	773	34	2.8062456875266
17	774	34.1	0.973
17	775	34.2	3.5114787950802
17	776	34.3	0.973
17	777	34.4	3.1819908556056
17	778	34.5	4.2507410787667
17	779	34.6	0.973
17	780	34.7	2.2224918372353
17	781	34.8	1.7236194039171
17	782	34.9	0.973
17	783	35	4.3290591913702
17	784	35.1	0.973
17	785	35.2	1.5052810774492
17	786	35.3	3.2379319073368
17	787	35.4	4.9390545241147
17	788	35.5	0.973
17	789	35.6	3.8899005699133
17	790	35.7	1.504244519845
17	791	35.8	1.6475245283724
17	792	35.9	1.2494473597205
17	793	36	2.2880012469967
17	794	36.1	2.4325898489876
17	795	36.2	2.220498263631
17	796	36.3	3.4827281345004
17	797	36.4	0.973
17	798	36.5	2.9241399741742
17	799	36.6	1.3108155742707
17	800	36.7	2.1521278004693
17	801	36.8	5.1478058216071
17	802	36.9	0.973
17	803	37	2.1779214210083
17	804	37.1	2.8473662240601
17	805	37.2	2.160186835785
17	806	37.3	2.3059183226778
17	807	37.4	2.4689309256312
17	808	37.5	0.973
17	809	37.6	5.0663472138426
17	810	37.7	0.973
17	811	37.8	6.3841038049416
17	812	37.9	0.973
17	813	38	2.8963480045573
17	814	38.1	0.973
17	815	38.2	3.686260595531
17	816	38.3	0.973
17	817	38.4	1.9797541968207
17	818	38.5	1.3626665100509
17	819	38.6	4.5995558368894
17	820	38.7	2.003136593504
17	821	38.8	0.973
17	822	38.9	5.4814225649523
17	823	39	0.973
17	824	39.1	4.2087790045848
17	825	39.2	0.973
17	826	39.3	1.7513712034996
17	827	39.4	0.973
17	828	39.5	4.2541890488808
17	829	39.6	2.3388072455918
17	830	39.7	0.973
17	831	39.8	4.1763708815729
17	832	39.9	1.8009999174472
17	833	40	0.973
17	834	40.1	3.1919186066787
17	835	40.2	1.76770226746
17	836	40.3	2.6136330860768
17	837	40.4	0.973
17	838	40.5	5.6573025238912
17	839	40.6	1.9774254006469
17	840	40.7	1.2953180034502
17	841	40.8	1.280629292763
17	842	40.9	1.3564483366176
17	843	41	3.6208707005567
17	844	41.1	0.973
17	845	41.2	3.453612852447
17	846	41.3	2.3414291163175
17	847	41.4	3.4204253084193
17	848	41.5	0.973
17	849	41.6	5.3694708593408
17	850	41.7	0.973
17	851	41.8	1.2222862638863
17	852	41.9	4.1210785747274
17	853	42	0.973
17	854	42.1	4.2709490286975
17	855	42.2	0.973
17	856	42.3	4.8643220057978
17	857	42.4	0.973
17	858	42.5	1.153322476604
17	859	42.6	3.7868795711131
17	860	42.7	2.6552927418526
17	861	42.8	1.3002498447366
16	436	0.3	-0.20436282765585
16	437	0.4	-0.75963758639992
16	438	0.5	0.46374235481489
16	439	0.6	0.42987335824874
16	440	0.7	-0.42290495529306
16	441	0.8	-0.27934064946603
16	442	0.9	0.24066877767909
16	443	1	0.56403360827826
16	444	1.1	-0.1139339807909
16	445	1.2	-1.085014008428
16	446	1.3	0.2275443459861
16	447	1.4	0.43491504483391
16	448	1.5	0.11313430701847
16	449	1.6	0.11240000391846
16	450	1.7	-0.20182976154612
16	451	1.8	0.28388725474944
16	452	1.9	-0.80547373222654
16	453	2	0.51315661247354
16	454	2.1	-0.43729765273165
16	455	2.2	0.95912287801038
16	456	2.3	-0.95442967428825
16	457	2.4	0.12886185280513
16	458	2.5	-0.26042735723314
16	459	2.6	-0.02673739953897
16	460	2.7	-0.0079557842342304
16	461	2.8	0.3463887377875
16	462	2.9	0.28782125965227
16	463	3	-0.54646550938488
16	464	3.1	0.54259770601057
16	465	3.2	-0.56667176634074
16	466	3.3	-0.14121750374324
16	467	3.4	0.86249390195588
16	468	3.5	-0.67357841059565
16	469	3.6	-0.060652634385043
16	470	3.7	0.53832741382065
16	471	3.8	0.18178819178139
16	472	3.9	-0.14707937974018
16	473	4	0.33458196585999
16	474	4.1	-0.35040567363613
16	475	4.2	-0.39892950048671
16	476	4.3	0.51549199505244
16	477	4.4	-0.20065322171432
16	478	4.5	-0.50561235113999
16	479	4.6	0.39634491039905
16	480	4.7	0.28980741144624
16	481	4.8	-0.06749063711613
16	482	4.9	-0.038520396873363
16	483	5	-0.68372201130259
16	484	5.1	0.66759875763672
16	485	5.2	0.45034402844031
16	486	5.3	-1.1919642246561
16	487	5.4	0.10506436405704
16	488	5.5	0.27753841411322
16	489	5.6	0.71089455760085
16	490	5.7	0.18947053323499
16	491	5.8	-0.56284750225021
16	492	5.9	-0.12792196320371
16	493	6	0.42957583819517
16	494	6.1	0.0092575442278786
16	495	6.2	0.039379205508148
16	496	6.3	-0.89137835546863
16	497	6.4	0.44924199173693
16	498	6.5	-0.47098988064098
16	499	6.6	-0.020539448130883
16	500	6.7	0.0024926435202488
16	501	6.8	-0.042511239298619
16	502	6.9	0.86016010330058
16	503	7	-0.74614682856481
16	504	7.1	-0.13892305861228
16	505	7.2	0.57614069399424
16	506	7.3	-0.14907983436714
16	507	7.4	-0.26861876258627
16	508	7.5	-0.0037181575549816
16	509	7.6	-0.14373336916323
16	510	7.7	-0.065370562206954
16	511	7.8	0.24681973804254
16	512	7.9	-0.10555678510572
16	513	8	0.53875158510635
16	514	8.1	-0.30173661615699
16	515	8.2	0.44330049611162
16	516	8.3	-0.077607105905191
16	517	8.4	0.39493370531128
16	518	8.5	-0.66715856429656
16	519	8.6	-0.47188077182508
16	520	8.7	0.17944643385707
16	521	8.8	0.90438729119487
16	522	8.9	0.019008091860453
16	523	9	-0.1845680948114
16	524	9.1	-0.2378509685397
16	525	9.2	-0.30908167692834
16	526	9.3	0.86543385481928
16	527	9.4	-0.79857899972703
16	528	9.5	-0.34430311752949
16	529	9.6	0.89571916116402
16	530	9.7	0.18187282197177
16	531	9.8	-0.93367840172723
16	532	9.9	0.23543684592006
16	533	10	0.1412202469306
16	534	10.1	-0.38385077011771
16	535	10.2	0.94733568220398
16	536	10.3	-0.88228736293967
16	537	10.4	0.94014076031744
16	538	10.5	-0.62219355283306
16	539	10.6	-0.069395463983533
16	540	10.7	0.53554889645893
16	541	10.8	0.0058721822453833
16	542	10.9	-0.0026589288609102
16	543	11	-0.11636837630068
16	544	11.1	0.27797175992745
16	545	11.2	-0.0079002724494792
16	546	11.3	-0.23760560082737
16	547	11.4	-0.57156471787021
16	548	11.5	0.1397743341513
16	549	11.6	-0.39782901199068
16	550	11.7	0.4503596297698
16	551	11.8	0.40071687819436
16	552	11.9	-0.045397029723979
16	553	12	-0.74409127682447
16	554	12.1	0.6808839159552
16	555	12.2	0.2702038899297
16	556	12.3	-0.17724607402926
16	557	12.4	-0.5515181953553
16	558	12.5	0.43964645825326
16	559	12.6	-0.69289790824987
16	560	12.7	0.31494732401333
16	561	12.8	0.38617082559504
16	562	12.9	-0.30941198871005
16	563	13	0.069986293814139
16	564	13.1	0.044641096214768
16	565	13.2	0.34753092497121
16	566	13.3	-0.67749419780448
16	567	13.4	-0.33513273329008
16	568	13.5	-0.014318815106531
16	569	13.6	1.1997526841471
16	570	13.7	-0.24605605865363
16	571	13.8	-0.80734372579027
16	572	13.9	0.59098606819752
16	573	14	-0.57538436185569
16	574	14.1	0.24097581126261
16	575	14.2	-0.39936509309335
16	576	14.3	0.052208848833093
16	577	14.4	1.0790729226312
16	578	14.5	-0.75536489516963
16	579	14.6	-0.37860768793616
16	580	14.7	0.036492847558112
16	581	14.8	1.0700578994118
16	582	14.9	-1.1523085749941
16	583	15	1.24026705164
16	584	15.1	-0.22925965713801
16	585	15.2	-0.68116331850179
16	586	15.3	0.7146191897802
16	587	15.4	-0.87140132158529
16	588	15.5	0.52413229004015
16	589	15.6	-0.6156743225176
16	590	15.7	0.85141442699824
16	591	15.8	-0.45377861706074
16	592	15.9	0.79530667504296
16	593	16	-0.40720088807866
16	594	16.1	-0.81185927945189
16	595	16.2	0.63072251218836
16	596	16.3	-0.17967635400128
16	597	16.4	-0.25115573324728
16	598	16.5	-0.11586754468736
16	599	16.6	-0.067009624675851
16	600	16.7	0.68277026633732
16	601	16.8	0.32990129701794
16	602	16.9	-1.0576269738143
16	603	17	0.4663140670862
16	604	17.1	0.30083086006343
16	605	17.2	0.47313099452294
16	606	17.3	-1.0756482631201
16	607	17.4	1.0036186331185
16	608	17.5	-0.49332308333833
16	609	17.6	-0.52246667135041
16	610	17.7	0.80128522927406
16	611	17.8	-0.94594973665663
16	612	17.9	0.48896978301928
16	613	18	-0.38587420661933
16	614	18.1	0.212716036872
16	615	18.2	0.15264369512444
16	616	18.3	-0.15765803216491
16	617	18.4	0.66098959599621
16	618	18.5	-0.73189174481668
16	619	18.6	0.3743913432816
16	620	18.7	-0.20548473438248
16	621	18.8	-0.4087544220034
16	622	18.9	0.92084188968874
16	623	19	0.098031378304579
16	624	19.1	-0.39594277027062
16	625	19.2	-0.37773165046238
16	626	19.3	0.26940283956938
16	627	19.4	-0.049523856211451
16	628	19.5	-0.37260261259508
16	629	19.6	0.40827209320851
16	630	19.7	0.31246521919966
16	631	19.8	-0.14842813925352
16	632	19.9	-0.52289543398656
16	633	20	0.76021131451707
16	634	20.1	-0.35447410531342
16	635	20.2	-0.35279147964904
16	636	20.3	0.6558883716818
16	637	20.4	-0.79624448432588
16	638	20.5	1.0282638097415
16	639	20.6	-0.33310633597431
16	640	20.7	0.48149724227843
16	641	20.8	-1.1423770938302
16	642	20.9	0.16299199154602
16	643	21	0.22146940366364
16	644	21.1	0.48074014890009
16	645	21.2	-0.80846063527279
16	646	21.3	0.045702130394059
16	647	21.4	-0.089315404277297
16	648	21.5	-0.094596471870325
16	649	21.6	1.0225744403666
16	650	21.7	-1.0314819229534
16	651	21.8	0.27822223627009
16	652	21.9	0.39667519282084
16	653	22	-0.53340396457353
16	654	22.1	0.082199853518983
16	655	22.2	0.67031037125272
16	656	22.3	-0.080071055074225
16	657	22.4	0.35521551442798
16	658	22.5	-1.165877636103
16	659	22.6	0.26890257094054
16	660	22.7	0.35484095539433
16	661	22.8	0.048832628689706
16	662	22.9	0.15525240909774
16	663	23	-0.27170357166325
16	664	23.1	0.27473798454739
16	665	23.2	-0.5143785548862
16	666	23.3	-0.16636577753816
16	667	23.4	0.0074156463146302
16	668	23.5	0.022422630665826
16	669	23.6	0.08249404046218
16	670	23.7	0.12613635617308
16	671	23.8	-0.080563226714716
16	672	23.9	-0.14082852383146
16	673	24	0.77933300726581
16	674	24.1	0.1448042634409
16	675	24.2	-0.76662321214098
16	676	24.3	0.71104949365836
16	677	24.4	0.14946131659672
16	678	24.5	-0.38276304169559
16	679	24.6	-0.073916066647506
16	680	24.7	-0.11885725508909
16	681	24.8	-0.14244709790219
16	682	24.9	0.59917433355004
16	683	25	-0.13798972142395
16	684	25.1	0.3000572028337
16	685	25.2	-0.33874136342201
16	686	25.3	0.28212942737154
16	687	25.4	-0.80055878676939
16	688	25.5	-0.40398477709386
16	689	25.6	0.20059198776725
16	690	25.7	0.68471797052771
16	691	25.8	-0.64342176073696
16	692	25.9	0.20772913382388
16	693	26	0.84408776401544
16	694	26.1	-0.33261841153728
16	695	26.2	-0.86799216473009
16	696	26.3	0.58781431342942
16	697	26.4	-0.4361758994637
16	698	26.5	0.044728328241028
16	699	26.6	-0.23848974648862
16	700	26.7	0.72814325874205
16	701	26.8	-0.11547482092865
16	702	26.9	-0.30763909756205
16	703	27	0.076440585684026
16	704	27.1	0.35256813219748
16	705	27.2	-0.44517058744095
16	706	27.3	0.46904157320968
16	707	27.4	-0.12103868168778
16	708	27.5	-0.27421444407665
16	709	27.6	-0.16692244964652
16	710	27.7	0.73445446628611
16	711	27.8	-0.25675560352392
16	712	27.9	0.54769446519204
16	713	28	-0.14606236943511
16	714	28.1	-0.86272423253394
16	715	28.2	0.19568019139115
16	716	28.3	-0.25765838851221
16	717	28.4	0.47021731033457
16	718	28.5	0.17357502798548
16	719	28.6	-0.40689521110616
16	720	28.7	-0.15014767188113
16	721	28.8	0.89734586037229
16	722	28.9	0.031048117647892
16	723	29	-0.78552938080394
16	724	29.1	0.026891370350501
16	725	29.2	0.19772660371382
16	726	29.3	-0.40576858348214
16	727	29.4	0.062081780820158
16	728	29.5	0.086532029206854
16	729	29.6	0.3391419701744
16	730	29.7	0.54706434176769
16	731	29.8	-0.41958321267739
16	732	29.9	-0.42071454182732
16	733	30	0.22845829047727
16	734	30.1	0.52154786370229
16	735	30.2	-1.0959357687272
16	736	30.3	0.019923474686223
16	737	30.4	0.77567578642629
16	738	30.5	0.0082592404447368
16	739	30.6	-0.88885565584059
16	740	30.7	0.61140266736038
16	741	30.8	0.52112885885872
16	742	30.9	-1.0277374597965
16	743	31	-0.08606872051022
16	744	31.1	1.0824358366663
16	745	31.2	-0.9561362501001
16	746	31.3	-0.15630996003747
16	747	31.4	0.060239463089964
16	748	31.5	0.50780691585969
16	749	31.6	0.41609316039832
16	750	31.7	-0.90675258550327
16	751	31.8	0.099496346595682
16	752	31.9	0.24174552033656
16	753	32	-0.17153898819815
16	754	32.1	0.9166749490425
16	755	32.2	-0.083990895771429
16	756	32.3	0.1221053493442
16	757	32.4	-0.29503299631179
16	758	32.5	-0.88323577812407
16	759	32.6	0.53084851377644
16	760	32.7	0.023661313392225
16	761	32.8	-0.4283117285464
16	762	32.9	1.0859623070806
16	763	33	0.006634555570777
16	764	33.1	-0.58382885900791
16	765	33.2	0.16559519583824
16	766	33.3	-0.74624121140223
16	767	33.4	0.36407089794521
16	768	33.5	-0.19920770484022
16	769	33.6	0.082350961281925
16	770	33.7	-0.06358650308103
16	771	33.8	-0.2198679067893
16	772	33.9	0.86077630314977
16	773	34	0.22819618517532
16	774	34.1	-0.79854811518453
16	775	34.2	0.43967440982815
16	776	34.3	-0.54223836965393
16	777	34.4	0.3427514232928
16	778	34.5	0.65605921780225
16	779	34.6	-0.5553105348954
16	780	34.7	0.05636106259189
16	781	34.8	-0.091874450910829
16	782	34.9	-0.53769052338321
16	783	35	0.682809229102
16	784	35.1	-0.6040122503182
16	785	35.2	-0.15571367198136
16	786	35.3	0.3604795741383
16	787	35.4	0.86001830082386
16	788	35.5	-0.72869725667404
16	789	35.6	0.55020244610494
16	790	35.7	-0.15771404064726
16	791	35.8	-0.11487672375514
16	792	35.9	-0.2329644710524
16	793	36	0.076191664207723
16	794	36.1	0.11878481623716
16	795	36.2	0.055491295130921
16	796	36.3	0.42826988184824
16	797	36.4	-0.96261414312757
16	798	36.5	0.26608580090105
16	799	36.6	-0.21433275309391
16	800	36.7	0.036627504671927
16	801	36.8	0.92150635062717
16	802	36.9	-0.86977011335549
16	803	37	0.044002023153009
16	804	37.1	0.24244137704372
16	805	37.2	0.037785843759774
16	806	37.3	0.080856584315185
16	807	37.4	0.12882337796038
16	808	37.5	-0.90844937840012
16	809	37.6	0.90061665894464
16	810	37.7	-0.94209100459702
16	811	37.8	1.2879158159485
16	812	37.9	-0.8683848660905
16	813	38	0.25714609078133
16	814	38.1	-0.57982635009102
16	815	38.2	0.49286894402465
16	816	38.3	-0.33493871036917
16	817	38.4	-0.014438582188436
16	818	38.5	-0.19839886894916
16	819	38.6	0.76308567514642
16	820	38.7	-0.0091111440444358
16	821	38.8	-0.66316102507988
16	822	38.9	1.0217465084046
16	823	39	-0.50883132154121
16	824	39.1	0.64315796254668
16	825	39.2	-0.47430777135306
16	826	39.3	-0.083836802374577
16	827	39.4	-0.70651635883841
16	828	39.5	0.66129702609032
16	829	39.6	0.090802641026677
16	830	39.7	-0.30252175857314
16	831	39.8	0.63491685474292
16	832	39.9	-0.069851548015141
16	833	40	-0.8763811273966
16	834	40.1	0.34606362483464
16	835	40.2	-0.07823365740478
16	836	40.3	0.17329697690439
16	837	40.4	-0.40940996115095
16	838	40.5	1.0727222861955
16	839	40.6	-0.018078618380244
16	840	40.7	-0.21998459713068
16	841	40.8	-0.22402514261195
16	842	40.9	-0.20115426762494
16	843	41	0.47028196486645
16	844	41.1	-1.0729113618145
16	845	41.2	0.42456702929922
16	846	41.3	0.092537678126234
16	847	41.4	0.41164289175068
16	848	41.5	-0.73223508636001
16	849	41.6	0.98821761773433
16	850	41.7	-0.49882913890761
16	851	41.8	-0.24090812993235
16	852	41.9	0.61883484392892
16	853	42	-1.0715934568783
16	854	42.1	0.66648736842909
16	855	42.2	-0.32121250394267
16	856	42.3	0.838464801386
16	857	42.4	-0.8664873437956
16	858	42.5	-0.26101286141202
16	859	42.6	0.52295861598104
16	860	42.7	0.18503287937493
16	861	42.8	-0.21779859401287
10	246	0.2	13.994986981645
10	436	0.3	13.974550698879
10	437	0.4	13.898586940239
10	438	0.5	13.944961175721
10	439	0.6	13.987948511546
10	440	0.7	13.945658016016
10	441	0.8	13.91772395107
10	442	0.9	13.941790828838
10	443	1	13.998194189665
10	444	1.1	13.986800791586
10	445	1.2	13.878299390743
10	446	1.3	13.901053825342
10	447	1.4	13.944545329825
10	448	1.5	13.955858760527
10	449	1.6	13.967098760919
10	450	1.7	13.946915784765
10	451	1.8	13.97530451024
10	452	1.9	13.894757137017
10	453	2	13.946072798264
10	454	2.1	13.902343032991
10	455	2.2	13.998255320792
10	456	2.3	13.902812353363
10	457	2.4	13.915698538644
10	458	2.5	13.88965580292
10	459	2.6	13.886982062967
10	460	2.7	13.886186484543
10	461	2.8	13.920825358322
10	462	2.9	13.949607484287
10	463	3	13.894960933349
10	464	3.1	13.94922070395
10	465	3.2	13.892553527316
10	466	3.3	13.878431776941
10	467	3.4	13.964681167137
10	468	3.5	13.897323326077
10	469	3.6	13.891258062639
10	470	3.7	13.945090804021
10	471	3.8	13.963269623199
10	472	3.9	13.948561685225
10	473	4	13.982019881811
10	474	4.1	13.946979314447
10	475	4.2	13.907086364399
10	476	4.3	13.958635563904
10	477	4.4	13.938570241733
10	478	4.5	13.888009006619
10	479	4.6	13.927643497658
10	480	4.7	13.956624238803
10	481	4.8	13.949875175091
10	482	4.9	13.946023135404
10	483	5	13.877650934274
10	484	5.1	13.944410810038
10	485	5.2	13.989445212882
10	486	5.3	13.870248790416
10	487	5.4	13.880755226822
10	488	5.5	13.908509068233
[...]
18	702	26.9	0
18	703	27	0
18	704	27.1	0
18	705	27.2	0
18	706	27.3	0
18	707	27.4	0
18	708	27.5	0
18	709	27.6	0
18	710	27.7	0
18	711	27.8	0
18	712	27.9	0
18	713	28	0
18	714	28.1	0
18	715	28.2	0
18	716	28.3	0
18	717	28.4	0
18	718	28.5	0
18	719	28.6	0
18	720	28.7	0
18	721	28.8	0
18	722	28.9	0
18	723	29	0
18	724	29.1	0
18	725	29.2	0
18	726	29.3	0
18	727	29.4	0
18	728	29.5	0
18	729	29.6	0
18	730	29.7	0
18	731	29.8	0
18	732	29.9	0
18	733	30	0
18	734	30.1	0
18	735	30.2	0
18	736	30.3	0
18	737	30.4	0
18	738	30.5	0
18	739	30.6	0
18	740	30.7	0
18	741	30.8	0
18	742	30.9	0
18	743	31	0
18	744	31.1	0
18	745	31.2	0
18	746	31.3	0
18	747	31.4	0
18	748	31.5	0
18	749	31.6	0
18	750	31.7	0
18	751	31.8	0
18	752	31.9	0
18	753	32	0
18	754	32.1	0
18	755	32.2	0
18	756	32.3	0
18	757	32.4	0
18	758	32.5	0
18	759	32.6	0
18	760	32.7	0
18	761	32.8	0
18	762	32.9	0
18	763	33	0
18	764	33.1	0
18	765	33.2	0
18	766	33.3	0
18	767	33.4	0
18	768	33.5	0
18	769	33.6	0
18	770	33.7	0
18	771	33.8	0
18	772	33.9	0
18	773	34	0
18	774	34.1	0
18	775	34.2	0
18	776	34.3	0
18	777	34.4	0
18	778	34.5	0
18	779	34.6	0
18	780	34.7	0
18	781	34.8	0
18	782	34.9	0
18	783	35	0
18	784	35.1	0
18	785	35.2	0
18	786	35.3	0
18	787	35.4	0
18	788	35.5	0
18	789	35.6	0
18	790	35.7	0
18	791	35.8	0
18	792	35.9	0
18	793	36	0
18	794	36.1	0
18	795	36.2	0
18	796	36.3	0
18	797	36.4	0
18	798	36.5	0
18	799	36.6	0
18	800	36.7	0
18	801	36.8	0
18	802	36.9	0
18	803	37	0
18	804	37.1	0
18	805	37.2	0
18	806	37.3	0
18	807	37.4	0
18	808	37.5	0
18	809	37.6	0
18	810	37.7	0
18	811	37.8	0
18	812	37.9	0
18	813	38	0
18	814	38.1	0
18	815	38.2	0
18	816	38.3	0
18	817	38.4	0
18	818	38.5	0
18	819	38.6	0
18	820	38.7	0
18	821	38.8	0
18	822	38.9	0
18	823	39	0
18	824	39.1	0
18	825	39.2	0
18	826	39.3	0
18	827	39.4	0
18	828	39.5	0
18	829	39.6	0
18	830	39.7	0
18	831	39.8	0
18	832	39.9	0
18	833	40	0
18	834	40.1	0
18	835	40.2	0
18	836	40.3	0
18	837	40.4	0
18	838	40.5	0
18	839	40.6	0
18	840	40.7	0
18	841	40.8	0
18	842	40.9	0
18	843	41	0
18	844	41.1	0
18	845	41.2	0
18	846	41.3	0
18	847	41.4	0
18	848	41.5	0
18	849	41.6	0
18	850	41.7	0
18	851	41.8	0
18	852	41.9	0
18	853	42	0
18	854	42.1	0
18	855	42.2	0
18	856	42.3	0
18	857	42.4	0
18	858	42.5	0
18	859	42.6	0
18	860	42.7	0
18	861	42.8	0
18	862	42.9	0
18	863	43	0
18	864	43.1	0
18	865	43.2	0
18	866	43.3	0
18	867	43.4	0
18	868	43.5	0
18	869	43.6	0
18	870	43.7	0
18	871	43.8	0
18	872	43.9	0
18	873	44	0
18	874	44.1	0
18	875	44.2	0
18	876	44.3	0
18	877	44.4	0
18	878	44.5	0
18	879	44.6	0
18	880	44.7	0
18	881	44.8	0
18	882	44.9	0
18	883	45	0
18	884	45.1	2.592179317486
18	885	45.2	2.5688774654348
18	886	45.3	2.5215611042831
18	887	45.4	2.2731680872044
18	888	45.5	2.429821107377
18	889	45.6	2.1443356545393
18	890	45.7	2.2851703777323
18	891	45.8	1.7392321359351
18	892	45.9	2.4609594272347
18	893	46	2.4848357097353
18	894	46.1	2.0403913045768
18	895	46.2	1.6103753659641
18	896	46.3	2.0634341837373
18	897	46.4	2.2789806393906
18	898	46.5	1.6700977983186
18	899	46.6	2.4204288027249
18	900	46.7	2.2647590353619
18	901	46.8	2.1691194649087
18	902	46.9	1.7216775277164
18	903	47	2.4921005586162
18	904	47.1	2.5477224879432
18	905	47.2	1.7264297948685
18	906	47.3	2.4472037687665
18	907	47.4	1.5514280621661
18	908	47.5	2.58940726812
18	909	47.6	1.3224355139304
18	910	47.7	1.3253570584115
18	911	47.8	1.7736410469748
18	912	47.9	1.8157826633425
18	913	48	2.3192997708218
18	914	48.1	1.4962807432981
18	915	48.2	1.8862643387169
18	916	48.3	1.8927657784196
18	917	48.4	1.8907720529707
18	918	48.5	2.5326941522537
18	919	48.6	2.2957011085236
18	920	48.7	1.6679619180737
18	921	48.8	2.4521564054303
18	922	48.9	1.652282136376
18	923	49	2.3779299757211
18	924	49.1	1.8703885182505
18	925	49.2	2.2255486362148
18	926	49.3	2.4375427759252
18	927	49.4	2.3864785335958
18	928	49.5	2.0831299236277
18	929	49.6	2.0838115428807
18	930	49.7	1.5842993312515
18	931	49.8	2.1920843020082
18	932	49.9	1.9357091183076
18	933	50	2.5721455057384
18	934	50.1	2.3624986351468
18	935	50.2	1.9665597700514
18	936	50.3	1.4904332697159
18	937	50.4	1.3849570071325
18	938	50.5	1.3580165402964
18	939	50.6	1.5281447483692
18	940	50.7	1.3205224914011
18	941	50.8	1.8515199203277
18	942	50.9	2.3494887341745
18	943	51	1.4423541070893
18	944	51.1	1.3379663744243
18	945	51.2	1.4827276912285
18	946	51.3	2.294749140786
18	947	51.4	1.4689687820617
18	948	51.5	2.565739999502
18	949	51.6	1.7276336488314
18	950	51.7	1.3701215611305
18	951	51.8	1.5582139546284
18	952	51.9	1.401757697016
18	953	52	1.9482626159653
18	954	52.1	0.24103551758452
18	955	52.2	-0.45344494583551
18	956	52.3	0.61945762827527
18	957	52.4	-0.47973632453941
18	958	52.5	0.18184244139121
18	959	52.6	0.30394869362935
18	960	52.7	-0.45376965471078
18	961	52.8	-0.060484294453627
18	962	52.9	0.32390655244235
18	963	53	-0.83122697402723
18	964	53.1	0.67323589234146
18	965	53.2	-0.5651764616603
18	966	53.3	0.04452571496369
18	967	53.4	0.15765021666883
18	968	53.5	0.19032836814876
18	969	53.6	0.2047644047998
18	970	53.7	-0.55380756666418
18	971	53.8	0.79606651796492
18	972	53.9	-1.0119197947206
18	973	54	0.74216904768255
18	974	54.1	0.12148658337537
18	975	54.2	-0.36592199308798
18	976	54.3	0.67996387730817
18	977	54.4	-1.1208519682055
18	978	54.5	0.23318150308915
18	979	54.6	0.16293783274014
18	980	54.7	0.64884435385466
18	981	54.8	-0.98610342268367
18	982	54.9	0.23734068211635
18	983	55	0.81393866601866
18	984	55.1	-1.1126674509375
18	985	55.2	0.82386030766648
18	986	55.3	0.32280555907636
18	987	55.4	-0.9651084786281
18	988	55.5	0.47882139936556
18	989	55.6	-0.037359008891507
18	990	55.7	-0.47478290090805
18	991	55.8	1.0455594202038
18	992	55.9	-0.14130750286858
18	993	56	-0.49486787768547
18	994	56.1	-0.31078354394994
18	995	56.2	-0.1322263537906
18	996	56.3	0.11075895647517
18	997	56.4	0.38285251294729
18	998	56.5	-0.24413422632497
18	999	56.6	0.13814306871501
18	1000	56.7	0.56824619364924
18	1001	56.8	-0.057072081742806
18	1002	56.9	0.17719079167582
18	1003	57	-1.0070066235727
18	1004	57.1	0.20527076092549
18	1005	57.2	-0.32916733231396
18	1006	57.3	0.85545992765111
18	1007	57.4	-0.65393089002464
18	1008	57.5	-0.30447560595348
18	1009	57.6	0.22134114217478
18	1010	57.7	0.37020479533822
18	1011	57.8	0.17403629329054
18	1012	57.9	0.44243384716102
18	1013	58	-0.88893303624355
18	1014	58.1	0.057478943374001
18	1015	58.2	0.01920112713707
18	1016	58.3	0.073853583238073
18	1017	58.4	0.53598043678795
18	1018	58.5	-0.88516533665825
18	1019	58.6	0.82302361887415
18	1020	58.7	0.13098640979733
18	1021	58.8	-0.34670365951024
18	1022	58.9	-0.23629031861201
18	1023	59	-0.073221580777307
18	1024	59.1	0.45463700557594
18	1025	59.2	-0.40973269443494
18	1026	59.3	-0.17043206049129
18	1027	59.4	0.89340147052425
18	1028	59.5	-0.10432279724627
18	1029	59.6	-0.9892866880633
18	1030	59.7	-0.016400449979113
18	1031	59.8	0.38385881595314
18	1032	59.9	0.17784135991242
18	1033	60	-0.59717737154569
19	436	0.3	2.0689420880809
19	437	0.4	2.653374482533
19	438	0.5	0.973
19	439	0.6	3.9835875150385
19	440	0.7	1.9715914728637
19	441	0.8	1.8981420550207
19	442	0.9	3.1316620970506
19	443	1	0.973
19	444	1.1	2.5575569117757
19	445	1.2	4.5994859085628
19	446	1.3	0.973
19	447	1.4	1.5523314012479
19	448	1.5	2.1249370166477
19	449	1.6	3.4704344663645
19	450	1.7	2.0110869934665
19	451	1.8	0.973
19	452	1.9	1.215689512171
19	453	2	2.8568564762325
19	454	2.1	0.973
19	455	2.2	2.8910123786303
19	456	2.3	2.0974744485318
19	457	2.4	5.2610284102409
19	458	2.5	1.3993032074266
19	459	2.6	0.973
19	460	2.7	1.7848345692581
19	461	2.8	5.3377851277329
19	462	2.9	0.973
19	463	3	4.6267513498976
19	464	3.1	0.973
19	465	3.2	0.973
19	466	3.3	4.6651910453459
19	467	3.4	2.9167847441691
19	468	3.5	0.973
19	469	3.6	2.0716850881396
19	470	3.7	6.2599188427967
19	471	3.8	0.973
19	472	3.9	3.8125127630267
19	473	4	2.5654564476169
19	474	4.1	0.973
19	475	4.2	4.5171455764792
19	476	4.3	0.973
19	477	4.4	2.1304083178456
19	478	4.5	0.973
19	479	4.6	4.0250612709721
19	480	4.7	0.973
19	481	4.8	5.0806262019492
19	482	4.9	0.973
19	483	5	3.4404619484032
19	484	5.1	1.6475845542925
19	485	5.2	3.8607500653043
19	486	5.3	0.973
19	487	5.4	2.0176267880754
19	488	5.5	4.1430228242865
19	489	5.6	0.973
19	490	5.7	1.5632893765488
19	491	5.8	3.9850730413369
19	492	5.9	2.6166738863932
19	493	6	3.4215117209181
19	494	6.1	0.973
19	495	6.2	0.973
19	496	6.3	4.7277583656538
19	497	6.4	0.973
19	498	6.5	1.6766904200645
19	499	6.6	0.973
19	500	6.7	5.6214495849932
19	501	6.8	1.5552692927656
19	502	6.9	0.973
19	503	7	4.268365211447
19	504	7.1	0.973
19	505	7.2	2.692842043145
19	506	7.3	4.9990910105782
19	507	7.4	0.973
19	508	7.5	4.3869094708406
19	509	7.6	1.2484044616084
19	510	7.7	4.5624840761095
19	511	7.8	0.973
19	512	7.9	1.9043972475953
19	513	8	4.8765344761544
19	514	8.1	2.7759062962709
19	515	8.2	0.973
19	516	8.3	0.973
19	517	8.4	4.9868907912461
19	518	8.5	0.973
19	519	8.6	4.5641080987671
19	520	8.7	0.973
19	521	8.8	3.7072281559952
19	522	8.9	3.4990679987703
19	523	9	2.440552325996
19	524	9.1	1.9529046932565
19	525	9.2	1.1417380492533
19	526	9.3	2.2300178673075
19	527	9.4	0.973
19	528	9.5	4.666809570664
19	529	9.6	0.973
19	530	9.7	2.9295416729818
19	531	9.8	3.2145023247899
19	532	9.9	1.2160382631481
19	533	10	3.3787359978068
19	534	10.1	2.0349382614137
19	535	10.2	0.973
19	536	10.3	4.7817464873034
19	537	10.4	0.973
19	538	10.5	1.6211588627479
19	539	10.6	2.9221137451773
19	540	10.7	0.973
19	541	10.8	1.1539822840591
19	542	10.9	4.6293364668192
19	543	11	0.973
19	544	11.1	2.5645454881762
19	545	11.2	1.3856231287778
19	546	11.3	2.9323541821409
19	547	11.4	2.7394611024692
19	548	11.5	1.5576874049918
19	549	11.6	3.3532361291431
19	550	11.7	1.9181810030963
19	551	11.8	2.0031658678978
19	552	11.9	1.2848420041144
19	553	12	0.973
19	554	12.1	2.7399284846564
19	555	12.2	2.4294117378942
19	556	12.3	2.2150734589058
19	557	12.4	2.0725004068165
19	558	12.5	1.4942699242345
19	559	12.6	1.2970937627505
19	560	12.7	1.5408322406568
19	561	12.8	1.649643400949
19	562	12.9	1.9522115965286
19	563	13	5.6779399638315
19	564	13.1	2.1993425363242
19	565	13.2	0.973
19	566	13.3	4.7518981863288
19	567	13.4	2.9673873032141
19	568	13.5	0.973
19	569	13.6	0.973
19	570	13.7	3.7555355065577
19	571	13.8	2.7090769865147
19	572	13.9	1.127931464017
19	573	14	4.2488052104356
19	574	14.1	0.973
19	575	14.2	2.1744761843871
19	576	14.3	0.973
19	577	14.4	4.9269737310876
19	578	14.5	0.973
19	579	14.6	3.8345881991978
19	580	14.7	1.6783061462963
19	581	14.8	4.4058987369238
19	582	14.9	0.973
19	583	15	1.521111830728
19	584	15.1	5.5466594071928
19	585	15.2	2.2851669499541
19	586	15.3	1.2222914352678
19	587	15.4	0.973
19	588	15.5	4.1061951215187
19	589	15.6	0.973
19	590	15.7	2.4161121750288
19	591	15.8	1.6404316284789
19	592	15.9	3.9048150401966
19	593	16	0.973
19	594	16.1	3.1169873365125
19	595	16.2	3.8597898699226
19	596	16.3	1.1550858277203
19	597	16.4	2.1246567223092
19	598	16.5	2.4779350819198
19	599	16.6	0.973
19	600	16.7	0.973
19	601	16.8	1.0987753358023
19	602	16.9	4.9451724843696
19	603	17	1.2468507331819
19	604	17.1	3.0710678460077
19	605	17.2	0.973
19	606	17.3	2.4134160119826
19	607	17.4	2.7214868511766
19	608	17.5	0.973
19	609	17.6	3.4924120997279
19	610	17.7	1.2678184793542
19	611	17.8	2.0038468316832
19	612	17.9	1.4593211994203
19	613	18	2.6997079681348
19	614	18.1	4.2273662339779
19	615	18.2	0.973
19	616	18.3	1.8097040260224
19	617	18.4	2.741103283224
19	618	18.5	3.4284126475116
19	619	18.6	1.3882542081813
19	620	18.7	3.6768727781386
19	621	18.8	0.973
19	622	18.9	0.973
19	623	19	6.2333915423166
19	624	19.1	0.973
19	625	19.2	4.5231774668925
19	626	19.3	0.973
19	627	19.4	0.973
19	628	19.5	0.973
19	629	19.6	0.973
19	630	19.7	0.973
19	631	19.8	0.973
19	632	19.9	0.973
19	633	20	0.973
19	634	20.1	0.973
19	635	20.2	0.973
19	636	20.3	0.973
19	637	20.4	0.973
19	638	20.5	0.973
19	639	20.6	0.973
19	640	20.7	0.973
19	641	20.8	0.973
19	642	20.9	0.973
19	643	21	0.973
19	644	21.1	0.973
19	645	21.2	0.973
19	646	21.3	0.973
19	647	21.4	0.973
19	648	21.5	0.973
19	649	21.6	0.973
19	650	21.7	0.973
19	651	21.8	0.973
19	652	21.9	0.973
19	653	22	0.973
19	654	22.1	0.973
19	655	22.2	0.973
19	656	22.3	0.973
19	657	22.4	0.973
19	658	22.5	1.1100037763209
19	659	22.6	0.973
19	660	22.7	0.973
19	661	22.8	0.973
19	662	22.9	0.973
19	663	23	0.973
19	664	23.1	0.973
19	665	23.2	0.973
19	666	23.3	0.973
19	667	23.4	0.973
19	668	23.5	0.973
19	669	23.6	0.973
19	670	23.7	0.973
19	671	23.8	0.973
19	672	23.9	0.973
19	673	24	0.973
19	674	24.1	0.973
19	675	24.2	0.973
19	676	24.3	0.973
19	677	24.4	0.973
19	678	24.5	0.973
19	679	24.6	0.973
19	680	24.7	0.973
19	681	24.8	0.973
19	682	24.9	0.973
19	683	25	0.973
19	684	25.1	0.973
19	685	25.2	0.973
19	686	25.3	0.973
19	687	25.4	0.973
19	688	25.5	0.973
19	689	25.6	0.973
19	690	25.7	0.973
19	691	25.8	0.973
19	692	25.9	0.973
19	693	26	0.973
19	694	26.1	0.973
19	695	26.2	0.973
19	696	26.3	0.973
19	697	26.4	0.973
19	698	26.5	0.973
19	699	26.6	0.973
19	700	26.7	0.973
19	701	26.8	0.973
19	702	26.9	0.973
19	703	27	0.973
19	704	27.1	0.973
19	705	27.2	0.973
19	706	27.3	0.973
19	707	27.4	0.973
19	708	27.5	0.973
19	709	27.6	0.973
19	710	27.7	0.973
19	711	27.8	0.973
19	712	27.9	0.973
19	713	28	0.973
19	714	28.1	0.973
19	715	28.2	0.973
19	716	28.3	0.973
19	717	28.4	0.973
19	718	28.5	0.973
19	719	28.6	0.973
19	720	28.7	0.973
19	721	28.8	0.973
19	722	28.9	0.973
19	723	29	0.973
19	724	29.1	0.973
19	725	29.2	0.973
19	726	29.3	0.973
19	727	29.4	0.973
19	728	29.5	0.973
19	729	29.6	0.973
19	730	29.7	0.973
19	731	29.8	0.973
19	732	29.9	0.973
19	733	30	0.973
19	734	30.1	0.973
19	735	30.2	0.973
19	736	30.3	0.973
19	737	30.4	0.973
19	738	30.5	0.973
19	739	30.6	0.973
19	740	30.7	0.973
19	741	30.8	0.973
19	742	30.9	0.973
19	743	31	0.973
19	744	31.1	0.973
19	745	31.2	0.973
19	746	31.3	0.973
19	747	31.4	0.973
19	748	31.5	0.973
19	749	31.6	0.973
19	750	31.7	0.973
19	751	31.8	0.973
19	752	31.9	0.973
19	753	32	0.973
19	754	32.1	0.973
19	755	32.2	0.973
19	756	32.3	0.973
19	757	32.4	0.973
19	758	32.5	0.973
19	759	32.6	0.973
19	760	32.7	0.973
19	761	32.8	0.973
19	762	32.9	0.973
19	763	33	0.973
19	764	33.1	0.973
19	765	33.2	0.973
19	766	33.3	0.973
19	767	33.4	0.973
19	768	33.5	0.973
19	769	33.6	0.973
19	770	33.7	0.973
19	771	33.8	0.973
19	772	33.9	0.973
19	773	34	0.973
19	774	34.1	0.973
19	775	34.2	0.973
19	776	34.3	0.973
19	777	34.4	0.973
19	778	34.5	0.973
19	779	34.6	0.973
19	780	34.7	0.973
19	781	34.8	0.973
19	782	34.9	0.973
19	783	35	0.973
19	784	35.1	0.973
19	785	35.2	0.973
19	786	35.3	0.973
19	787	35.4	0.973
19	788	35.5	0.973
19	789	35.6	0.973
19	790	35.7	0.973
19	791	35.8	0.973
19	792	35.9	0.973
19	793	36	0.973
19	794	36.1	0.973
19	795	36.2	0.973
19	796	36.3	0.973
19	797	36.4	0.973
19	798	36.5	0.973
19	799	36.6	0.973
19	800	36.7	0.973
19	801	36.8	0.973
19	802	36.9	0.973
19	803	37	0.973
19	804	37.1	0.973
19	805	37.2	0.973
19	806	37.3	0.973
19	807	37.4	0.973
19	808	37.5	0.973
19	809	37.6	0.973
19	810	37.7	0.973
19	811	37.8	0.973
19	812	37.9	0.973
19	813	38	0.973
19	814	38.1	0.973
19	815	38.2	0.973
19	816	38.3	0.973
19	817	38.4	0.973
19	818	38.5	0.973
19	819	38.6	0.973
19	820	38.7	0.973
19	821	38.8	0.973
19	822	38.9	0.973
19	823	39	0.973
19	824	39.1	0.973
19	825	39.2	0.973
19	826	39.3	0.973
19	827	39.4	0.973
19	828	39.5	0.973
19	829	39.6	0.973
19	830	39.7	0.973
19	831	39.8	0.973
19	832	39.9	0.973
19	833	40	0.973
19	834	40.1	0.973
19	835	40.2	0.973
19	836	40.3	0.973
19	837	40.4	0.973
19	838	40.5	0.973
19	839	40.6	0.973
19	840	40.7	0.973
19	841	40.8	0.973
19	842	40.9	0.973
19	843	41	0.973
19	844	41.1	0.973
19	845	41.2	0.973
19	846	41.3	0.973
19	847	41.4	0.973
19	848	41.5	0.973
19	849	41.6	0.973
19	850	41.7	0.973
19	851	41.8	0.973
19	852	41.9	0.973
19	853	42	0.973
19	854	42.1	0.973
19	855	42.2	0.973
19	856	42.3	0.973
19	857	42.4	0.973
19	858	42.5	0.973
19	859	42.6	0.973
19	860	42.7	0.973
19	861	42.8	0.973
19	862	42.9	0.973
19	863	43	0.973
19	864	43.1	0.973
19	865	43.2	0.973
19	866	43.3	0.973
19	867	43.4	0.973
19	868	43.5	0.973
19	869	43.6	0.973
19	870	43.7	0.973
19	871	43.8	0.973
19	872	43.9	0.973
19	873	44	0.973
19	874	44.1	0.973
19	875	44.2	0.973
19	876	44.3	0.973
19	877	44.4	0.973
19	878	44.5	0.973
19	879	44.6	0.973
19	880	44.7	0.973
19	881	44.8	0.973
19	882	44.9	0.973
19	883	45	0.973
19	884	45.1	1.2844436681686
19	885	45.2	1.4544303889449
19	886	45.3	1.6139726274133
19	887	45.4	1.7035291870351
19	888	45.5	1.8952085970567
19	889	45.6	1.9312613104879
19	890	45.7	2.1176074166265
19	891	45.8	1.9778107955493
19	892	45.9	2.4586344955251
19	893	46	2.6318586914875
19	894	46.1	2.4906621680286
19	895	46.2	2.296552888532
19	896	46.3	2.7060264136988
19	897	46.4	2.9945306986081
19	898	46.5	2.60815603733
19	899	46.6	3.3615077063285
19	900	46.7	3.363393570556
19	901	46.8	3.4009234832033
19	902	46.9	3.0499376993962
19	903	47	3.9878943881569
19	904	47.1	4.2173693336379
19	905	47.2	3.3727067940836
19	906	47.3	4.3730948186809
19	907	47.4	3.339756205895
19	908	47.5	4.8293266452278
19	909	47.6	3.1967603694897
19	910	47.7	3.2506562070198
19	911	47.8	3.9605342838051
19	912	47.9	4.1110346281677
19	913	48	4.9986068493982
19	914	48.1	3.799014533961
19	915	48.2	4.5084310980648
19	916	48.3	4.6168287685972
19	917	48.4	4.7113543278526
19	918	48.5	5.9773607801492
19	919	48.6	5.7000441615007
19	920	48.7	4.6334509687059
19	921	48.8	6.2555259725089
19	922	48.9	4.7946408053064
19	923	49	6.3707151493194
19	924	49.1	5.4428100568905
19	925	49.2	6.3108008887984
19	926	49.3	6.9201570116233
19	927	49.4	6.9633032057738
19	928	49.5	6.4051958991415
19	929	49.6	6.5267589065176
19	930	49.7	5.4327933311892
19	931	49.8	7.007491879858
19	932	49.9	6.4907407088715
19	933	50	8.2438843480669
19	934	50.1	7.8658470594223
19	935	50.2	6.9489025146866
19	936	50.3	5.7582286413797
19	937	50.4	5.5338000465535
19	938	50.5	5.516648192952
19	939	50.6	6.0521481231069
19	940	50.7	5.5287509710538
19	941	50.8	7.1192294100207
19	942	50.9	8.6941823041873
19	943	51	6.116729926241
19	944	51.1	5.8644508846021
19	945	51.2	6.3620007844842
19	946	51.3	8.9571290385213
19	947	51.4	6.4887427064106
19	948	51.5	10.076403756294
19	949	51.6	7.5115665702844
19	950	51.7	6.4234318293862
19	951	51.8	7.1069130143606
19	952	51.9	6.655390241699
19	953	52	8.5766478768986
19	954	52.1	2.8459676711858
19	955	52.2	0.973
19	956	52.3	4.1234556540717
19	957	52.4	0.973
19	958	52.5	2.6448694801432
19	959	52.6	3.06067845644
19	960	52.7	0.973
19	961	52.8	1.8284209351223
19	962	52.9	3.1244816611563
19	963	53	0.973
19	964	53.1	4.2955696717024
19	965	53.2	0.973
19	966	53.3	2.1768975151216
19	967	53.4	2.5578412797957
19	968	53.5	2.6701845259708
19	969	53.6	2.7217379009167
19	970	53.7	0.973
19	971	53.8	4.7164153413229
19	972	53.9	0.973
19	973	54	4.5273516767826
19	974	54.1	2.4430506172006
19	975	54.2	0.973
19	976	54.3	4.3298941624733
19	977	54.4	0.973
19	978	54.5	2.8096707042435
19	979	54.6	2.5766708026352
19	980	54.7	4.2230215633365
19	981	54.8	0.973
19	982	54.9	2.8246049751291
19	983	55	4.7812232048215
19	984	55.1	0.973
19	985	55.2	4.8059778477236
19	986	55.3	3.1262801396882
19	987	55.4	0.973
19	988	55.5	3.6417341798235
19	989	55.6	1.9070251905493
19	990	55.7	0.973
19	991	55.8	5.5648671898597
19	992	55.9	1.5607814200532
19	993	56	0.973
19	994	56.1	0.973
19	995	56.2	1.5847975083443
19	996	56.3	2.3994522319876
19	997	56.4	3.3182659550067
19	998	56.5	1.2113314972744
19	999	56.6	2.4949178943238
19	1000	56.7	3.9520107887427
19	1001	56.8	1.8442611930119
19	1002	56.9	2.6359472767508
19	1003	57	0.973
19	1004	57.1	2.7184938640357
19	1005	57.2	0.973
19	1006	57.3	4.9150925628485
19	1007	57.4	0.973
19	1008	57.5	0.973
19	1009	57.6	2.7691146615285
19	1010	57.7	3.2746393931873
19	1011	57.8	2.618551697472
19	1012	57.9	3.5300104594638
19	1013	58	0.973
19	1014	58.1	2.2222389643853
19	1015	58.2	2.0941320653343
19	1016	58.3	2.2782423046118
19	1017	58.4	3.8407753617087
19	1018	58.5	0.973
19	1019	58.6	4.8054582140672
19	1020	58.7	2.4779741210187
19	1021	58.8	0.973
19	1022	58.9	1.238009136077
19	1023	59	1.7844676132038
19	1024	59.1	3.5640581717681
19	1025	59.2	0.973
19	1026	59.3	1.4577471976275
19	1027	59.4	5.0500426504077
19	1028	59.5	1.6852912741096
19	1029	59.6	0.973
19	1030	59.7	1.9716490063276
19	1031	59.8	3.3179205718302
19	1032	59.9	2.6294898046605
19	1033	60	0.973

