version 2
run General-0-20260106-21:07:12-146949
attr configname General
attr datetime 20260106-21:07:12
attr experiment General
attr inifile omnetpp.ini
attr iterationvars ""
attr iterationvarsf ""
attr measurement ""
attr network IntersectionScenario
attr processid 146949
attr repetition 0
attr replication #0
attr resultdir results
attr runnumber 0
attr seedset 0
param *.node[*].numApps 1
param *.node[*].app[0].typename "\"benchmark.tcp.HelloTcpApplication\""
param *.node[*].wlan[0].opMode "\"p\""
param *.node[*].wlan[0].radio.typename "\"Ieee80211DimensionalRadio\""
param *.node[*].wlan[0].radio.bandName "\"5.9 GHz\""
param *.node[*].wlan[0].radio.channelNumber 3
param *.node[*].wlan[0].radio.bandwidth "10 MHz"
param *.node[*].wlan[0].radio.transmitter.power 20mW
param *.node[*].wlan[0].radio.receiver.sensitivity 3pW
param *.node[*].wlan[0].radio.receiver.energyDetection 3pW
param *.configurator.config "xmldoc(\"tcp_ips.xml\")"
param *.node[*].mobility.typename "\"VeinsInetMobility\""
param *.manager.updateInterval 0.1s
param *.manager.host "\"localhost\""
param *.manager.port 9999
param *.manager.autoShutdown true
param *.manager.launchConfig "xmldoc(\"intersection.launchd.xml\")"
param *.manager.moduleType "\"benchmark.veins_inet.VeinsInetCar\""
param *.physicalEnvironment.config "xmldoc(\"../veins_inet/obstacles.xml\")"
param *.radioMedium.obstacleLoss.typename "\"IdealObstacleLoss\""

vector 0 IntersectionScenario.node[0].wlan[0].radio radioMode:vector ETV
attr interpolationmode sample-hold
attr source radioModeChanged
attr title "Radio mode, vector"
vector 1 IntersectionScenario.node[0].wlan[0].radio radioChannel:vector ETV
attr interpolationmode sample-hold
attr source radioChannelChanged
attr title "Radio channel, vector"
vector 2 IntersectionScenario.node[0].wlan[0].radio receptionState:vector ETV
attr interpolationmode sample-hold
attr source receptionStateChanged
attr title "Radio reception state, vector"
vector 3 IntersectionScenario.node[0].wlan[0].mac.dcf.recoveryProcedure contentionWindowChanged:vector ETV
attr interpolationmode sample-hold
attr title "contention window, vector"
vector 4 IntersectionScenario.node[1].wlan[0].radio radioMode:vector ETV
attr interpolationmode sample-hold
attr source radioModeChanged
attr title "Radio mode, vector"
vector 5 IntersectionScenario.node[1].wlan[0].radio radioChannel:vector ETV
attr interpolationmode sample-hold
attr source radioChannelChanged
attr title "Radio channel, vector"
vector 6 IntersectionScenario.node[1].wlan[0].radio receptionState:vector ETV
attr interpolationmode sample-hold
attr source receptionStateChanged
attr title "Radio reception state, vector"
vector 7 IntersectionScenario.node[1].wlan[0].mac.dcf.recoveryProcedure contentionWindowChanged:vector ETV
attr interpolationmode sample-hold
attr title "contention window, vector"
vector 8 IntersectionScenario.node[2].wlan[0].radio radioMode:vector ETV
attr interpolationmode sample-hold
attr source radioModeChanged
attr title "Radio mode, vector"
vector 9 IntersectionScenario.node[2].wlan[0].radio radioChannel:vector ETV
attr interpolationmode sample-hold
attr source radioChannelChanged
attr title "Radio channel, vector"
vector 10 IntersectionScenario.node[2].wlan[0].radio receptionState:vector ETV
attr interpolationmode sample-hold
attr source receptionStateChanged
attr title "Radio reception state, vector"
vector 11 IntersectionScenario.node[2].wlan[0].mac.dcf.recoveryProcedure contentionWindowChanged:vector ETV
attr interpolationmode sample-hold
attr title "contention window, vector"
vector 12 IntersectionScenario.node[3].wlan[0].radio radioMode:vector ETV
attr interpolationmode sample-hold
attr source radioModeChanged
attr title "Radio mode, vector"
vector 13 IntersectionScenario.node[3].wlan[0].radio radioChannel:vector ETV
attr interpolationmode sample-hold
attr source radioChannelChanged
attr title "Radio channel, vector"
vector 14 IntersectionScenario.node[3].wlan[0].radio receptionState:vector ETV
attr interpolationmode sample-hold
attr source receptionStateChanged
attr title "Radio reception state, vector"
vector 15 IntersectionScenario.node[3].wlan[0].mac.dcf.recoveryProcedure contentionWindowChanged:vector ETV
attr interpolationmode sample-hold
attr title "contention window, vector"
vector 16 IntersectionScenario.node[0].tcp.conn-8 tcpRcvQueueBytes:vector ETV
attr interpolationmode sample-hold
vector 17 IntersectionScenario.node[0].tcp.conn-8 rcvAdv:vector ETV
attr interpolationmode sample-hold
vector 18 IntersectionScenario.node[0].tcp.conn-8 rcvWnd:vector ETV
attr interpolationmode sample-hold
vector 19 IntersectionScenario.node[0].tcp.conn-8 sndAck:vector ETV
attr interpolationmode sample-hold
vector 20 IntersectionScenario.node[0].tcp.conn-9 tcpRcvQueueBytes:vector ETV
attr interpolationmode sample-hold
vector 21 IntersectionScenario.node[0].tcp.conn-9 rcvAdv:vector ETV
attr interpolationmode sample-hold
vector 22 IntersectionScenario.node[0].tcp.conn-9 rcvWnd:vector ETV
attr interpolationmode sample-hold
vector 23 IntersectionScenario.node[0].tcp.conn-9 sndAck:vector ETV
attr interpolationmode sample-hold
vector 24 IntersectionScenario.node[0].tcp.conn-10 tcpRcvQueueBytes:vector ETV
attr interpolationmode sample-hold
vector 25 IntersectionScenario.node[0].tcp.conn-10 rcvAdv:vector ETV
attr interpolationmode sample-hold
vector 26 IntersectionScenario.node[0].tcp.conn-10 rcvWnd:vector ETV
attr interpolationmode sample-hold
vector 27 IntersectionScenario.node[0].tcp.conn-10 sndAck:vector ETV
attr interpolationmode sample-hold
vector 28 IntersectionScenario.node[1].tcp.conn-11 tcpRcvQueueBytes:vector ETV
attr interpolationmode sample-hold
vector 29 IntersectionScenario.node[1].tcp.conn-11 rcvAdv:vector ETV
attr interpolationmode sample-hold
vector 30 IntersectionScenario.node[1].tcp.conn-11 rcvWnd:vector ETV
attr interpolationmode sample-hold
vector 31 IntersectionScenario.node[1].tcp.conn-11 sndAck:vector ETV
attr interpolationmode sample-hold
vector 32 IntersectionScenario.node[1].tcp.conn-12 tcpRcvQueueBytes:vector ETV
attr interpolationmode sample-hold
vector 33 IntersectionScenario.node[1].tcp.conn-12 rcvAdv:vector ETV
attr interpolationmode sample-hold
vector 34 IntersectionScenario.node[1].tcp.conn-12 rcvWnd:vector ETV
attr interpolationmode sample-hold
vector 35 IntersectionScenario.node[1].tcp.conn-12 sndAck:vector ETV
attr interpolationmode sample-hold
vector 36 IntersectionScenario.node[1].tcp.conn-13 tcpRcvQueueBytes:vector ETV
attr interpolationmode sample-hold
vector 37 IntersectionScenario.node[1].tcp.conn-13 rcvAdv:vector ETV
attr interpolationmode sample-hold
vector 38 IntersectionScenario.node[1].tcp.conn-13 rcvWnd:vector ETV
attr interpolationmode sample-hold
vector 39 IntersectionScenario.node[1].tcp.conn-13 sndAck:vector ETV
attr interpolationmode sample-hold
vector 40 IntersectionScenario.node[2].tcp.conn-14 tcpRcvQueueBytes:vector ETV
attr interpolationmode sample-hold
vector 41 IntersectionScenario.node[2].tcp.conn-14 rcvAdv:vector ETV
attr interpolationmode sample-hold
vector 42 IntersectionScenario.node[2].tcp.conn-14 rcvWnd:vector ETV
attr interpolationmode sample-hold
vector 43 IntersectionScenario.node[2].tcp.conn-14 sndAck:vector ETV
attr interpolationmode sample-hold
vector 44 IntersectionScenario.node[2].tcp.conn-15 tcpRcvQueueBytes:vector ETV
attr interpolationmode sample-hold
vector 45 IntersectionScenario.node[2].tcp.conn-15 rcvAdv:vector ETV
attr interpolationmode sample-hold
vector 46 IntersectionScenario.node[2].tcp.conn-15 rcvWnd:vector ETV
attr interpolationmode sample-hold
vector 47 IntersectionScenario.node[2].tcp.conn-15 sndAck:vector ETV
attr interpolationmode sample-hold
vector 48 IntersectionScenario.node[2].tcp.conn-16 tcpRcvQueueBytes:vector ETV
attr interpolationmode sample-hold
vector 49 IntersectionScenario.node[2].tcp.conn-16 rcvAdv:vector ETV
attr interpolationmode sample-hold
vector 50 IntersectionScenario.node[2].tcp.conn-16 rcvWnd:vector ETV
attr interpolationmode sample-hold
vector 51 IntersectionScenario.node[2].tcp.conn-16 sndAck:vector ETV
attr interpolationmode sample-hold
vector 52 IntersectionScenario.node[3].tcp.conn-17 tcpRcvQueueBytes:vector ETV
attr interpolationmode sample-hold
vector 53 IntersectionScenario.node[3].tcp.conn-17 rcvAdv:vector ETV
attr interpolationmode sample-hold
vector 54 IntersectionScenario.node[3].tcp.conn-17 rcvWnd:vector ETV
attr interpolationmode sample-hold
vector 55 IntersectionScenario.node[3].tcp.conn-17 sndAck:vector ETV
attr interpolationmode sample-hold
vector 56 IntersectionScenario.node[3].tcp.conn-18 tcpRcvQueueBytes:vector ETV
attr interpolationmode sample-hold
vector 57 IntersectionScenario.node[3].tcp.conn-18 rcvAdv:vector ETV
attr interpolationmode sample-hold
vector 58 IntersectionScenario.node[3].tcp.conn-18 rcvWnd:vector ETV
attr interpolationmode sample-hold
vector 59 IntersectionScenario.node[3].tcp.conn-18 sndAck:vector ETV
attr interpolationmode sample-hold
vector 60 IntersectionScenario.node[3].tcp.conn-19 tcpRcvQueueBytes:vector ETV
attr interpolationmode sample-hold
vector 61 IntersectionScenario.node[3].tcp.conn-19 rcvAdv:vector ETV
attr interpolationmode sample-hold
vector 62 IntersectionScenario.node[3].tcp.conn-19 rcvWnd:vector ETV
attr interpolationmode sample-hold
vector 63 IntersectionScenario.node[3].tcp.conn-19 sndAck:vector ETV
attr interpolationmode sample-hold
vector 64 IntersectionScenario.node[0].ipv4.arp arpRequestSent:vector(packetBytes) ETV
attr source arpRequestSent
attr title "ARP request sent, vector(packetBytes)"
vector 65 IntersectionScenario.node[1].ipv4.ip packetDropNoRouteFound:vector(packetBytes) ETV
attr interpolationmode none
attr source packetDropReasonIsNoRouteFound(packetDropped)
attr title "packet drop: no route found, vector(packetBytes)"
vector 66 IntersectionScenario.node[2].ipv4.ip packetDropNoRouteFound:vector(packetBytes) ETV
attr interpolationmode none
attr source packetDropReasonIsNoRouteFound(packetDropped)
attr title "packet drop: no route found, vector(packetBytes)"
vector 67 IntersectionScenario.node[3].ipv4.ip packetDropNoRouteFound:vector(packetBytes) ETV
attr interpolationmode none
attr source packetDropReasonIsNoRouteFound(packetDropped)
attr title "packet drop: no route found, vector(packetBytes)"
vector 68 IntersectionScenario.node[0].wlan[0].mac packetReceivedFromUpper:vector(packetBytes) ETV
attr interpolationmode none
attr title "packets received from upper layer, vector(packetBytes)"
vector 69 IntersectionScenario.node[0].wlan[0].mac.dcf.channelAccess.pendingQueue packetPushed:vector(packetBytes) ETV
attr interpolationmode none
attr title "packet pushed, vector(packetBytes)"
vector 70 IntersectionScenario.node[0].wlan[0].mac.dcf.channelAccess.pendingQueue queueLength:vector ETV
attr interpolationmode sample-hold
attr source "count(packetPushed) - count(packetPopped) - count(packetRemoved) - count(packetDropped)"
attr title "queue length, vector"
vector 71 IntersectionScenario.node[0].wlan[0].mac.dcf.channelAccess.contention backoffPeriodGenerated:vector ETV
attr interpolationmode none
attr title "backoff periods, vector"
vector 72 IntersectionScenario.node[0].wlan[0].mac.dcf.channelAccess.contention backoffActive:vector ETV
attr interpolationmode sample-hold
attr source count(backoffStarted)-count(backoffStopped)
attr title "backoff active, vector"
vector 73 IntersectionScenario.node[0].wlan[0].mac.dcf.channelAccess.pendingQueue packetPopped:vector(packetBytes) ETV
attr interpolationmode none
attr title "packet popped, vector(packetBytes)"
vector 74 IntersectionScenario.node[0].wlan[0].mac.dcf.channelAccess.pendingQueue queueingTime:vector ETV
attr interpolationmode none
attr source queueingTime(packetPopped)
attr title "queueing times, vector"
attr unit s
vector 75 IntersectionScenario.node[0].wlan[0].mac.dcf.channelAccess.inProgressFrames queueLength:vector ETV
attr interpolationmode sample-hold
attr source "count(packetEnqueued) - count(packetDequeued)"
attr title "queue length, vector"
vector 76 IntersectionScenario.node[0].wlan[0].mac.dcf datarateSelected:vector ETV
attr interpolationmode none
attr title "datarates selected, vector"
vector 77 IntersectionScenario.node[0].wlan[0].mac packetSentToLower:vector(packetBytes) ETV
attr interpolationmode none
attr title "packets sent to lower layer, vector(packetBytes)"
vector 78 IntersectionScenario.node[0].wlan[0].mac.dcf frameSequenceActive:vector ETV
attr interpolationmode sample-hold
attr source count(frameSequenceStarted)-count(frameSequenceFinished)
attr title "frame sequence active, vector"
vector 79 IntersectionScenario.node[0].wlan[0].radio transmissionState:vector ETV
attr interpolationmode sample-hold
attr source transmissionStateChanged
attr title "Radio transmission state, vector"
vector 80 IntersectionScenario.node[0].wlan[0].mac.dcf packetSentToPeer:vector(packetBytes) ETV
attr interpolationmode none
attr title "packets sent, vector(packetBytes)"
vector 81 IntersectionScenario.node[0].wlan[0].mac.dcf packetSentToPeerMulticast:vector(packetBytes) ETV
attr interpolationmode none
attr source ieee80211Multicast(packetSentToPeer)
attr title "packets sent: multicast, vector(packetBytes)"
vector 82 IntersectionScenario.node[0].wlan[0].mac.dcf packetSentToPeerBroadcast:vector(packetBytes) ETV
attr interpolationmode none
attr source ieee80211Broadcast(packetSentToPeer)
attr title "packets sent: broadcast , vector(packetBytes)"
vector 83 IntersectionScenario.node[0].wlan[0].mac.dcf packetSentToPeerWithoutRetry:vector(packetBytes) ETV
attr interpolationmode none
attr source ieee80211NotRetry(packetSentToPeer)
attr title "packets sent: without retry, vector(packetBytes)"
vector 84 IntersectionScenario.node[0].wlan[0].mac.dcf.channelAccess.inProgressFrames queueingTime:vector ETV
attr interpolationmode none
attr source queueingTime(packetDequeued)
attr title "queueing times, vector"
vector 85 IntersectionScenario.node[1].wlan[0].mac packetReceivedFromLower:vector(packetBytes) ETV
attr interpolationmode none
attr title "packets received from lower layer, vector(packetBytes)"
vector 86 IntersectionScenario.node[1].wlan[0].mac.dcf packetReceivedFromPeer:vector(packetBytes) ETV
attr interpolationmode none
attr title "packets received, vector(packetBytes)"
vector 87 IntersectionScenario.node[1].wlan[0].mac.dcf packetReceivedFromPeerMulticast:vector(packetBytes) ETV
attr interpolationmode none
attr source ieee80211Multicast(packetReceivedFromPeer)
attr title "packets received: multicast, vector(packetBytes)"
vector 88 IntersectionScenario.node[1].wlan[0].mac.dcf packetReceivedFromPeerBroadcast:vector(packetBytes) ETV
attr interpolationmode none
attr source ieee80211Broadcast(packetReceivedFromPeer)
attr title "packets received: broadcast, vector(packetBytes)"
vector 89 IntersectionScenario.node[1].wlan[0].mac.dcf packetReceivedFromPeerWithoutRetry:vector(packetBytes) ETV
attr interpolationmode none
attr source ieee80211NotRetry(packetReceivedFromPeer)
attr title "packets received: without retry, vector(packetBytes)"
vector 90 IntersectionScenario.node[1].wlan[0].mac packetSentToUpper:vector(packetBytes) ETV
attr interpolationmode none
attr title "packets sent to upper layer, vector(packetBytes)"
vector 91 IntersectionScenario.node[2].wlan[0].mac packetReceivedFromLower:vector(packetBytes) ETV
attr interpolationmode none
attr title "packets received from lower layer, vector(packetBytes)"
vector 92 IntersectionScenario.node[2].wlan[0].mac.dcf packetReceivedFromPeer:vector(packetBytes) ETV
attr interpolationmode none
attr title "packets received, vector(packetBytes)"
vector 93 IntersectionScenario.node[2].wlan[0].mac.dcf packetReceivedFromPeerMulticast:vector(packetBytes) ETV
attr interpolationmode none
attr source ieee80211Multicast(packetReceivedFromPeer)
attr title "packets received: multicast, vector(packetBytes)"
vector 94 IntersectionScenario.node[2].wlan[0].mac.dcf packetReceivedFromPeerBroadcast:vector(packetBytes) ETV
attr interpolationmode none
attr source ieee80211Broadcast(packetReceivedFromPeer)
attr title "packets received: broadcast, vector(packetBytes)"
vector 95 IntersectionScenario.node[2].wlan[0].mac.dcf packetReceivedFromPeerWithoutRetry:vector(packetBytes) ETV
attr interpolationmode none
attr source ieee80211NotRetry(packetReceivedFromPeer)
attr title "packets received: without retry, vector(packetBytes)"
vector 96 IntersectionScenario.node[2].wlan[0].mac packetSentToUpper:vector(packetBytes) ETV
attr interpolationmode none
attr title "packets sent to upper layer, vector(packetBytes)"
vector 97 IntersectionScenario.node[0].ipv4.ip packetDropAddressResolutionFailed:vector(packetBytes) ETV
attr interpolationmode none
attr source packetDropReasonIsAddressResolutionFailed(packetDropped)
attr title "packet drop: address resolution failed, vector(packetBytes)"
vector 98 IntersectionScenario.node[3].wlan[0].mac packetReceivedFromLower:vector(packetBytes) ETV
attr interpolationmode none
attr title "packets received from lower layer, vector(packetBytes)"
vector 99 IntersectionScenario.node[3].wlan[0].mac.dcf packetReceivedFromPeer:vector(packetBytes) ETV
attr interpolationmode none
attr title "packets received, vector(packetBytes)"
vector 100 IntersectionScenario.node[3].wlan[0].mac.dcf packetReceivedFromPeerMulticast:vector(packetBytes) ETV
attr interpolationmode none
attr source ieee80211Multicast(packetReceivedFromPeer)
attr title "packets received: multicast, vector(packetBytes)"
vector 101 IntersectionScenario.node[3].wlan[0].mac.dcf packetReceivedFromPeerBroadcast:vector(packetBytes) ETV
attr interpolationmode none
attr source ieee80211Broadcast(packetReceivedFromPeer)
attr title "packets received: broadcast, vector(packetBytes)"
vector 102 IntersectionScenario.node[3].wlan[0].mac.dcf packetReceivedFromPeerWithoutRetry:vector(packetBytes) ETV
attr interpolationmode none
attr source ieee80211NotRetry(packetReceivedFromPeer)
attr title "packets received: without retry, vector(packetBytes)"
vector 103 IntersectionScenario.node[3].wlan[0].mac packetSentToUpper:vector(packetBytes) ETV
attr interpolationmode none
attr title "packets sent to upper layer, vector(packetBytes)"
vector 104 IntersectionScenario.node[0].app[0] throughput:vector ETV
attr source throughput(packetReceived)
attr title "throughput, vector"
attr unit bps
vector 105 IntersectionScenario.node[1].app[0] throughput:vector ETV
attr source throughput(packetReceived)
attr title "throughput, vector"
attr unit bps
vector 106 IntersectionScenario.node[2].app[0] throughput:vector ETV
attr source throughput(packetReceived)
attr title "throughput, vector"
attr unit bps
vector 107 IntersectionScenario.node[3].app[0] throughput:vector ETV
attr source throughput(packetReceived)
attr title "throughput, vector"
attr unit bps
0	2	0.1	0
0	2	0.1	0
0	2	0.1	2
0	309	5.1	3
0	315	5.100088	2
0	327	5.100341	3
0	333	5.100429	2
0	345	5.100552	3
0	351	5.10064	2
0	433	6.1	3
0	439	6.100088	2
0	451	6.100185	3
0	457	6.100273	2
0	469	6.100474	3
0	475	6.100562	2
0	557	7.1	3
0	563	7.100088	2
0	575	7.100237	3
0	581	7.100325	2
0	593	7.1005	3
0	599	7.100588	2
0	709	8.1	3
0	715	8.100088	2
0	727	8.100211	3
0	733	8.100299	2
0	745	8.100383	3
0	751	8.100471	2
0	833	9.1	3
0	839	9.100088	2
0	851	9.100237	3
0	857	9.100325	2
0	869	9.100461	3
0	875	9.100549	2
0	957	10.1	3
0	963	10.100088	2
0	978	10.10025	3
0	984	10.100338	2
0	999	10.100552	3
0	1005	10.10064	2
0	1292	14.1	3
0	1298	14.100088	2
0	1313	14.100159	3
0	1319	14.100247	2
0	1334	14.100383	3
0	1340	14.100471	2
0	1425	15.1	3
0	1431	15.100088	2
0	1446	15.100237	3
0	1452	15.100325	2
0	1467	15.100565	3
0	1473	15.100653	2
0	1558	16.1	3
0	1564	16.100088	2
0	1579	16.100159	3
0	1585	16.100247	2
0	1600	16.10037	3
0	1606	16.100458	2
0	2159	26.1	3
0	2165	26.100088	2
0	2180	26.100315	3
0	2186	26.100403	2
0	2201	26.100565	3
0	2207	26.100653	2
0	2272	27.1	3
0	2278	27.100088	2
0	2293	27.100198	3
0	2299	27.100286	2
0	2314	27.100383	3
0	2320	27.100471	2
0	2385	28.1	3
0	2391	28.100088	2
0	2406	28.100185	3
0	2412	28.100273	2
0	2427	28.100396	3
0	2433	28.100484	2
0	3300	50.1	3
0	3306	50.100088	2
0	3321	50.100341	3
0	3327	50.100429	2
0	3342	50.100682	3
0	3348	50.10077	2
0	3393	51.1	3
0	3399	51.100088	2
0	3414	51.100172	3
0	3420	51.10026	2
0	3435	51.100357	3
0	3441	51.100445	2
0	3486	52.1	3
0	3492	52.100088	2
0	3507	52.100159	3
0	3513	52.100247	2
0	3528	52.100344	3
0	3534	52.100432	2
1	2	0.1	3
2	2	0.1	1
2	309	5.1	0
2	315	5.100088	1
2	327	5.100341	0
2	333	5.100429	1
2	345	5.100552	0
2	351	5.10064	1
2	433	6.1	0
2	439	6.100088	1
2	451	6.100185	0
2	457	6.100273	1
2	469	6.100474	0
2	475	6.100562	1
2	557	7.1	0
2	563	7.100088	1
2	575	7.100237	0
2	581	7.100325	1
2	593	7.1005	0
2	599	7.100588	1
2	709	8.1	0
2	715	8.100088	1
2	727	8.100211	0
2	733	8.100299	1
2	745	8.100383	0
2	751	8.100471	1
2	833	9.1	0
2	839	9.100088	1
2	851	9.100237	0
2	857	9.100325	1
2	869	9.100461	0
2	875	9.100549	1
2	957	10.1	0
2	963	10.100088	1
2	978	10.10025	0
2	984	10.100338	1
2	999	10.100552	0
2	1005	10.10064	1
2	1292	14.1	0
2	1298	14.100088	1
2	1313	14.100159	0
2	1319	14.100247	1
2	1334	14.100383	0
2	1340	14.100471	1
2	1425	15.1	0
2	1431	15.100088	1
2	1446	15.100237	0
2	1452	15.100325	1
2	1467	15.100565	0
2	1473	15.100653	1
2	1558	16.1	0
2	1564	16.100088	1
2	1579	16.100159	0
2	1585	16.100247	1
2	1600	16.10037	0
2	1606	16.100458	1
2	2159	26.1	0
2	2165	26.100088	1
2	2180	26.100315	0
2	2186	26.100403	1
2	2201	26.100565	0
2	2207	26.100653	1
2	2272	27.1	0
2	2278	27.100088	1
2	2293	27.100198	0
2	2299	27.100286	1
2	2314	27.100383	0
2	2320	27.100471	1
2	2385	28.1	0
2	2391	28.100088	1
2	2406	28.100185	0
2	2412	28.100273	1
2	2427	28.100396	0
2	2433	28.100484	1
2	3300	50.1	0
2	3306	50.100088	1
2	3321	50.100341	0
2	3327	50.100429	1
2	3342	50.100682	0
2	3348	50.10077	1
2	3393	51.1	0
2	3399	51.100088	1
2	3414	51.100172	0
2	3420	51.10026	1
2	3435	51.100357	0
2	3441	51.100445	1
2	3486	52.1	0
2	3492	52.100088	1
2	3507	52.100159	0
2	3513	52.100247	1
2	3528	52.100344	0
2	3534	52.100432	1
3	2	0.1	15
4	2	0.1	0
4	2	0.1	0
4	2	0.1	2
5	2	0.1	3
6	2	0.1	1
6	311	5.100001064905	3
6	316	5.100089064905	1
6	329	5.100342064905	3
6	334	5.100430064905	1
6	347	5.100553064905	3
6	352	5.100641064905	1
6	436	6.10000099917	3
6	444	6.10008899917	1
6	454	6.10018599917	3
6	462	6.10027399917	1
6	472	6.10047499917	3
6	480	6.10056299917	1
6	559	7.100000933427	3
6	564	7.100088933427	1
6	577	7.100237933427	3
6	582	7.100325933427	1
6	595	7.100500933427	3
6	600	7.100588933427	1
6	711	8.100000867665	3
6	716	8.100088867665	1
6	729	8.100211867665	3
6	734	8.100299867665	1
6	747	8.100383867665	3
6	752	8.100471867665	1
6	835	9.100000801892	3
6	840	9.100088801892	1
6	853	9.100237801892	3
6	858	9.100325801892	1
6	871	9.100461801892	3
6	876	9.100549801892	1
6	959	10.100000736187	3
6	964	10.100088736187	1
6	980	10.100250736187	3
6	985	10.100338736187	1
6	1001	10.100552736187	3
6	1006	10.100640736187	1
6	1294	14.100000473349	3
6	1299	14.100088473349	1
6	1315	14.100159473349	3
6	1320	14.100247473349	1
6	1336	14.100383473349	3
6	1341	14.100471473349	1
6	1427	15.100000407652	3
6	1432	15.100088407652	1
6	1448	15.100237407652	3
6	1453	15.100325407652	1
6	1469	15.100565407652	3
6	1474	15.100653407652	1
6	1560	16.100000341953	3
6	1565	16.100088341953	1
6	1581	16.100159341953	3
6	1586	16.100247341953	1
6	1602	16.100370341953	3
6	1607	16.100458341953	1
6	2163	26.10000010841	3
6	2174	26.10008810841	1
6	2184	26.10031510841	3
6	2195	26.10040310841	1
6	2205	26.10056510841	3
6	2216	26.10065310841	1
6	2276	27.10000010841	3
6	2287	27.10008810841	1
6	2297	27.10019810841	3
6	2308	27.10028610841	1
6	2318	27.10038310841	3
6	2329	27.10047110841	1
6	2389	28.10000010841	3
6	2400	28.10008810841	1
6	2410	28.10018510841	3
6	2421	28.10027310841	1
6	2431	28.10039610841	3
6	2442	28.10048410841	1
6	3304	50.100000110509	3
6	3315	50.100088110509	1
6	3325	50.100341110509	3
6	3336	50.100429110509	1
6	3346	50.100682110509	3
6	3357	50.100770110509	1
6	3397	51.10000011091	3
6	3408	51.10008811091	1
6	3418	51.10017211091	3
6	3429	51.10026011091	1
6	3439	51.10035711091	3
6	3450	51.10044511091	1
6	3490	52.10000011091	3
6	3501	52.10008811091	1
6	3511	52.10015911091	3
6	3522	52.10024711091	1
6	3532	52.10034411091	3
6	3543	52.10043211091	1
7	2	0.1	15
8	2	0.1	0
8	2	0.1	0
8	2	0.1	2
9	2	0.1	3
10	2	0.1	1
10	312	5.100001064911	3
10	320	5.100089064911	1
10	330	5.100342064911	3
10	338	5.100430064911	1
10	348	5.100553064911	3
10	356	5.100641064911	1
10	435	6.100000999167	3
10	440	6.100088999167	1
10	453	6.100185999167	3
10	458	6.100273999167	1
10	471	6.100474999167	3
10	476	6.100562999167	1
10	560	7.100000933466	3
10	568	7.100088933466	1
10	578	7.100237933466	3
10	586	7.100325933466	1
10	596	7.100500933466	3
10	604	7.100588933466	1
10	712	8.100000867825	3
10	720	8.100088867825	1
10	730	8.100211867825	3
10	738	8.100299867825	1
10	748	8.100383867825	3
10	756	8.100471867825	1
10	836	9.100000802081	3
10	844	9.100088802081	1
10	854	9.100237802081	3
10	862	9.100325802081	1
10	872	9.100461802081	3
10	880	9.100549802081	1
10	960	10.100000736373	3
10	968	10.100088736373	1
10	981	10.100250736373	3
10	989	10.100338736373	1
10	1002	10.100552736373	3
10	1010	10.100640736373	1
10	1295	14.100000473393	3
10	1303	14.100088473393	1
10	1316	14.100159473393	3
10	1324	14.100247473393	1
10	1337	14.100383473393	3
10	1345	14.100471473393	1
10	1428	15.1000004077	3
10	1436	15.1000884077	1
10	1449	15.1002374077	3
10	1457	15.1003254077	1
10	1470	15.1005654077	3
10	1478	15.1006534077	1
10	1561	16.100000341968	3
10	1569	16.100088341968	1
10	1582	16.100159341968	3
10	1590	16.100247341968	1
10	1603	16.100370341968	3
10	1611	16.100458341968	1
10	2162	26.100000094588	3
10	2170	26.100088094588	1
10	2183	26.100315094588	3
10	2191	26.100403094588	1
10	2204	26.100565094588	3
10	2212	26.100653094588	1
10	2275	27.100000094588	3
10	2283	27.100088094588	1
10	2296	27.100198094588	3
10	2304	27.100286094588	1
10	2317	27.100383094588	3
10	2325	27.100471094588	1
10	2388	28.100000094588	3
10	2396	28.100088094588	1
10	2409	28.100185094588	3
10	2417	28.100273094588	1
10	2430	28.100396094588	3
10	2438	28.100484094588	1
10	3303	50.10000010459	3
10	3311	50.10008810459	1
10	3324	50.10034110459	3
10	3332	50.10042910459	1
10	3345	50.10068210459	3
10	3353	50.10077010459	1
10	3396	51.100000105127	3
10	3404	51.100088105127	1
10	3417	51.100172105127	3
10	3425	51.100260105127	1
10	3438	51.100357105127	3
10	3446	51.100445105127	1
10	3489	52.100000105127	3
10	3497	52.100088105127	1
10	3510	52.100159105127	3
10	3518	52.100247105127	1
10	3531	52.100344105127	3
10	3539	52.100432105127	1
11	2	0.1	15
12	2	0.1	0
12	2	0.1	0
12	2	0.1	2
13	2	0.1	3
14	2	0.1	1
14	961	10.100001041253	3
14	972	10.100089041253	1
14	982	10.100251041253	3
14	993	10.100339041253	1
14	1003	10.100553041253	3
14	1014	10.100641041253	1
14	1296	14.100000669514	3
14	1307	14.100088669514	1
14	1317	14.100159669514	3
14	1328	14.100247669514	1
14	1338	14.100383669514	3
14	1349	14.100471669514	1
14	1429	15.100000576606	3
14	1440	15.100088576606	1
14	1450	15.100237576606	3
14	1461	15.100325576606	1
14	1471	15.100565576606	3
14	1482	15.100653576606	1
14	1562	16.100000483553	3
14	1573	16.100088483553	1
14	1583	16.100159483553	3
14	1594	16.100247483553	1
14	1604	16.100370483553	3
14	1615	16.100458483553	1
14	2161	26.100000055743	3
14	2166	26.100088055743	1
14	2182	26.100315055743	3
14	2187	26.100403055743	1
14	2203	26.100565055743	3
14	2208	26.100653055743	1
14	2274	27.100000055743	3
14	2279	27.100088055743	1
14	2295	27.100198055743	3
14	2300	27.100286055743	1
14	2316	27.100383055743	3
14	2321	27.100471055743	1
14	2387	28.100000055743	3
14	2392	28.100088055743	1
14	2408	28.100185055743	3
14	2413	28.100273055743	1
14	2429	28.100396055743	3
14	2434	28.100484055743	1
14	3302	50.100000092285	3
14	3307	50.100088092285	1
14	3323	50.100341092285	3
14	3328	50.100429092285	1
14	3344	50.100682092285	3
14	3349	50.100770092285	1
14	3395	51.100000094723	3
14	3400	51.100088094723	1
14	3416	51.100172094723	3
14	3421	51.100260094723	1
14	3437	51.100357094723	3
14	3442	51.100445094723	1
14	3488	52.100000094723	3
14	3493	52.100088094723	1
14	3509	52.100159094723	3
14	3514	52.100247094723	1
14	3530	52.100344094723	3
14	3535	52.100432094723	1
15	2	0.1	15
16	273	5.1	0
16	661	8.1	0
16	1247	14.1	0
16	2116	26.1	0
16	3259	50.1	0
17	273	5.1	7504
17	661	8.1	7504
17	1247	14.1	7504
17	2116	26.1	7504
17	3259	50.1	7504
18	273	5.1	7504
18	661	8.1	7504
18	1247	14.1	7504
18	2116	26.1	7504
18	3259	50.1	7504
19	273	5.1	0
19	661	8.1	0
19	1247	14.1	0
19	2116	26.1	0
19	3259	50.1	0
20	274	5.1	0
20	662	8.1	0
20	1248	14.1	0
20	2117	26.1	0
20	3260	50.1	0
21	274	5.1	7504
21	662	8.1	7504
21	1248	14.1	7504
21	2117	26.1	7504
21	3260	50.1	7504
22	274	5.1	7504
22	662	8.1	7504
22	1248	14.1	7504
22	2117	26.1	7504
22	3260	50.1	7504
23	274	5.1	0
23	662	8.1	0
23	1248	14.1	0
23	2117	26.1	0
23	3260	50.1	0
24	275	5.1	0
24	663	8.1	0
24	1249	14.1	0
24	2118	26.1	0
24	3261	50.1	0
25	275	5.1	7504
25	663	8.1	7504
25	1249	14.1	7504
25	2118	26.1	7504
25	3261	50.1	7504
26	275	5.1	7504
26	663	8.1	7504
26	1249	14.1	7504
26	2118	26.1	7504
26	3261	50.1	7504
27	275	5.1	0
27	663	8.1	0
27	1249	14.1	0
27	2118	26.1	0
27	3261	50.1	0
28	276	5.1	0
28	664	8.1	0
28	1250	14.1	0
28	2119	26.1	0
28	3262	50.1	0
29	276	5.1	7504
29	664	8.1	7504
29	1250	14.1	7504
29	2119	26.1	7504
29	3262	50.1	7504
30	276	5.1	7504
30	664	8.1	7504
30	1250	14.1	7504
30	2119	26.1	7504
30	3262	50.1	7504
31	276	5.1	0
31	664	8.1	0
31	1250	14.1	0
31	2119	26.1	0
31	3262	50.1	0
32	277	5.1	0
32	665	8.1	0
32	1251	14.1	0
32	2120	26.1	0
32	3263	50.1	0
33	277	5.1	7504
33	665	8.1	7504
33	1251	14.1	7504
33	2120	26.1	7504
33	3263	50.1	7504
34	277	5.1	7504
34	665	8.1	7504
34	1251	14.1	7504
34	2120	26.1	7504
34	3263	50.1	7504
35	277	5.1	0
35	665	8.1	0
35	1251	14.1	0
35	2120	26.1	0
35	3263	50.1	0
36	278	5.1	0
36	666	8.1	0
36	1252	14.1	0
36	2121	26.1	0
36	3264	50.1	0
37	278	5.1	7504
37	666	8.1	7504
37	1252	14.1	7504
37	2121	26.1	7504
37	3264	50.1	7504
38	278	5.1	7504
38	666	8.1	7504
38	1252	14.1	7504
38	2121	26.1	7504
38	3264	50.1	7504
39	278	5.1	0
39	666	8.1	0
39	1252	14.1	0
39	2121	26.1	0
39	3264	50.1	0
40	279	5.1	0
40	667	8.1	0
40	1253	14.1	0
40	2122	26.1	0
40	3265	50.1	0
41	279	5.1	7504
41	667	8.1	7504
41	1253	14.1	7504
41	2122	26.1	7504
41	3265	50.1	7504
42	279	5.1	7504
42	667	8.1	7504
42	1253	14.1	7504
42	2122	26.1	7504
42	3265	50.1	7504
43	279	5.1	0
43	667	8.1	0
43	1253	14.1	0
43	2122	26.1	0
43	3265	50.1	0
44	280	5.1	0
44	668	8.1	0
44	1254	14.1	0
44	2123	26.1	0
44	3266	50.1	0
45	280	5.1	7504
45	668	8.1	7504
45	1254	14.1	7504
45	2123	26.1	7504
45	3266	50.1	7504
46	280	5.1	7504
46	668	8.1	7504
46	1254	14.1	7504
46	2123	26.1	7504
46	3266	50.1	7504
47	280	5.1	0
47	668	8.1	0
47	1254	14.1	0
47	2123	26.1	0
47	3266	50.1	0
48	281	5.1	0
48	669	8.1	0
48	1255	14.1	0
48	2124	26.1	0
48	3267	50.1	0
49	281	5.1	7504
49	669	8.1	7504
49	1255	14.1	7504
49	2124	26.1	7504
49	3267	50.1	7504
50	281	5.1	7504
50	669	8.1	7504
50	1255	14.1	7504
50	2124	26.1	7504
50	3267	50.1	7504
51	281	5.1	0
51	669	8.1	0
51	1255	14.1	0
51	2124	26.1	0
51	3267	50.1	0
52	282	5.1	0
52	670	8.1	0
52	1256	14.1	0
52	2125	26.1	0
52	3268	50.1	0
53	282	5.1	7504
53	670	8.1	7504
53	1256	14.1	7504
53	2125	26.1	7504
53	3268	50.1	7504
54	282	5.1	7504
54	670	8.1	7504
54	1256	14.1	7504
54	2125	26.1	7504
54	3268	50.1	7504
55	282	5.1	0
55	670	8.1	0
55	1256	14.1	0
55	2125	26.1	0
55	3268	50.1	0
56	283	5.1	0
56	671	8.1	0
56	1257	14.1	0
56	2126	26.1	0
56	3269	50.1	0
57	283	5.1	7504
57	671	8.1	7504
57	1257	14.1	7504
57	2126	26.1	7504
57	3269	50.1	7504
58	283	5.1	7504
58	671	8.1	7504
58	1257	14.1	7504
58	2126	26.1	7504
58	3269	50.1	7504
59	283	5.1	0
59	671	8.1	0
59	1257	14.1	0
59	2126	26.1	0
59	3269	50.1	0
60	284	5.1	0
60	672	8.1	0
60	1258	14.1	0
60	2127	26.1	0
60	3270	50.1	0
61	284	5.1	7504
61	672	8.1	7504
61	1258	14.1	7504
61	2127	26.1	7504
61	3270	50.1	7504
62	284	5.1	7504
62	672	8.1	7504
62	1258	14.1	7504
62	2127	26.1	7504
62	3270	50.1	7504
63	284	5.1	0
63	672	8.1	0
63	1258	14.1	0
63	2127	26.1	0
63	3270	50.1	0
64	285	5.1	28
64	286	5.1	28
64	287	5.1	28
64	413	6.1	28
64	414	6.1	28
64	415	6.1	28
64	537	7.1	28
64	538	7.1	28
64	539	7.1	28
64	685	8.1	28
64	686	8.1	28
64	687	8.1	28
64	813	9.1	28
64	814	9.1	28
64	815	9.1	28
64	937	10.1	28
64	938	10.1	28
64	939	10.1	28
64	1268	14.1	28
64	1269	14.1	28
64	1270	14.1	28
64	1405	15.1	28
64	1406	15.1	28
64	1407	15.1	28
64	1538	16.1	28
64	1539	16.1	28
64	1540	16.1	28
64	2135	26.1	28
64	2136	26.1	28
64	2137	26.1	28
64	2254	27.1	28
64	2255	27.1	28
64	2256	27.1	28
64	2367	28.1	28
64	2368	28.1	28
64	2369	28.1	28
64	3276	50.1	28
64	3277	50.1	28
64	3278	50.1	28
64	3377	51.1	28
64	3378	51.1	28
64	3379	51.1	28
64	3470	52.1	28
64	3471	52.1	28
64	3472	52.1	28
65	288	5.1	44
65	289	5.1	44
65	290	5.1	44
65	688	8.1	44
65	689	8.1	44
65	690	8.1	44
65	1271	14.1	44
65	1272	14.1	44
65	1273	14.1	44
65	2138	26.1	44
65	2139	26.1	44
65	2140	26.1	44
65	3279	50.1	44
65	3280	50.1	44
65	3281	50.1	44
66	291	5.1	44
66	292	5.1	44
66	293	5.1	44
66	691	8.1	44
66	692	8.1	44
66	693	8.1	44
66	1274	14.1	44
66	1275	14.1	44
66	1276	14.1	44
66	2141	26.1	44
66	2142	26.1	44
66	2143	26.1	44
66	3282	50.1	44
66	3283	50.1	44
66	3284	50.1	44
67	294	5.1	44
67	295	5.1	44
67	296	5.1	44
67	694	8.1	44
67	695	8.1	44
67	696	8.1	44
67	1277	14.1	44
67	1278	14.1	44
67	1279	14.1	44
67	2144	26.1	44
67	2145	26.1	44
67	2146	26.1	44
67	3285	50.1	44
67	3286	50.1	44
67	3287	50.1	44
68	304	5.1	30
68	305	5.1	30
68	306	5.1	30
68	428	6.1	30
68	429	6.1	30
68	430	6.1	30
68	552	7.1	30
68	553	7.1	30
68	554	7.1	30
68	704	8.1	30
68	705	8.1	30
68	706	8.1	30
68	828	9.1	30
68	829	9.1	30
68	830	9.1	30
68	952	10.1	30
68	953	10.1	30
68	954	10.1	30
68	1287	14.1	30
68	1288	14.1	30
68	1289	14.1	30
68	1420	15.1	30
68	1421	15.1	30
68	1422	15.1	30
68	1553	16.1	30
68	1554	16.1	30
68	1555	16.1	30
68	2154	26.1	30
68	2155	26.1	30
68	2156	26.1	30
68	2267	27.1	30
68	2268	27.1	30
68	2269	27.1	30
68	2380	28.1	30
68	2381	28.1	30
68	2382	28.1	30
68	3295	50.1	30
68	3296	50.1	30
68	3297	50.1	30
68	3388	51.1	30
68	3389	51.1	30
68	3390	51.1	30
68	3481	52.1	30
68	3482	52.1	30
68	3483	52.1	30
69	304	5.1	58
69	305	5.1	58
69	306	5.1	58
69	428	6.1	58
69	429	6.1	58
69	430	6.1	58
69	552	7.1	58
69	553	7.1	58
69	554	7.1	58
69	704	8.1	58
69	705	8.1	58
69	706	8.1	58
69	828	9.1	58
69	829	9.1	58
69	830	9.1	58
69	952	10.1	58
69	953	10.1	58
69	954	10.1	58
69	1287	14.1	58
69	1288	14.1	58
69	1289	14.1	58
69	1420	15.1	58
69	1421	15.1	58
69	1422	15.1	58
69	1553	16.1	58
69	1554	16.1	58
69	1555	16.1	58
69	2154	26.1	58
69	2155	26.1	58
69	2156	26.1	58
69	2267	27.1	58
69	2268	27.1	58
69	2269	27.1	58
69	2380	28.1	58
69	2381	28.1	58
69	2382	28.1	58
69	3295	50.1	58
69	3296	50.1	58
69	3297	50.1	58
69	3388	51.1	58
69	3389	51.1	58
69	3390	51.1	58
69	3481	52.1	58
69	3482	52.1	58
69	3483	52.1	58
70	304	5.1	1
70	305	5.1	2
70	306	5.1	3
70	308	5.1	2
70	308	5.1	1
70	326	5.100341	0
70	428	6.1	1
70	429	6.1	2
70	430	6.1	3
70	432	6.1	2
70	432	6.1	1
70	450	6.100185	0
70	552	7.1	1
70	553	7.1	2
70	554	7.1	3
70	556	7.1	2
70	556	7.1	1
70	574	7.100237	0
70	704	8.1	1
70	705	8.1	2
70	706	8.1	3
70	708	8.1	2
70	708	8.1	1
70	726	8.100211	0
70	828	9.1	1
70	829	9.1	2
70	830	9.1	3
70	832	9.1	2
70	832	9.1	1
70	850	9.100237	0
70	952	10.1	1
70	953	10.1	2
70	954	10.1	3
70	956	10.1	2
70	956	10.1	1
70	977	10.10025	0
70	1287	14.1	1
70	1288	14.1	2
70	1289	14.1	3
70	1291	14.1	2
70	1291	14.1	1
70	1312	14.100159	0
70	1420	15.1	1
70	1421	15.1	2
70	1422	15.1	3
70	1424	15.1	2
70	1424	15.1	1
70	1445	15.100237	0
70	1553	16.1	1
70	1554	16.1	2
70	1555	16.1	3
70	1557	16.1	2
70	1557	16.1	1
70	1578	16.100159	0
70	2154	26.1	1
70	2155	26.1	2
70	2156	26.1	3
70	2158	26.1	2
70	2158	26.1	1
70	2179	26.100315	0
70	2267	27.1	1
70	2268	27.1	2
70	2269	27.1	3
70	2271	27.1	2
70	2271	27.1	1
70	2292	27.100198	0
70	2380	28.1	1
70	2381	28.1	2
70	2382	28.1	3
70	2384	28.1	2
70	2384	28.1	1
70	2405	28.100185	0
70	3295	50.1	1
70	3296	50.1	2
70	3297	50.1	3
70	3299	50.1	2
70	3299	50.1	1
70	3320	50.100341	0
70	3388	51.1	1
70	3389	51.1	2
70	3390	51.1	3
70	3392	51.1	2
70	3392	51.1	1
70	3413	51.100172	0
70	3481	52.1	1
70	3482	52.1	2
70	3483	52.1	3
70	3485	52.1	2
70	3485	52.1	1
70	3506	52.100159	0
71	304	5.1	12
71	314	5.100088	15
71	332	5.100429	5
71	428	6.1	0
71	438	6.100088	3
71	456	6.100273	11
71	552	7.1	3
71	562	7.100088	7
71	580	7.100325	9
71	704	8.1	3
71	714	8.100088	5
71	732	8.100299	2
71	828	9.1	4
71	838	9.100088	7
71	856	9.100325	6
71	952	10.1	8
71	962	10.100088	8
71	983	10.100338	12
71	1287	14.1	10
71	1297	14.100088	1
71	1318	14.100247	6
71	1420	15.1	7
71	1430	15.100088	7
71	1451	15.100325	14
71	1553	16.1	8
71	1563	16.100088	1
71	1584	16.100247	5
71	2154	26.1	9
71	2164	26.100088	13
71	2185	26.100403	8
71	2267	27.1	9
71	2277	27.100088	4
71	2298	27.100286	3
71	2380	28.1	0
71	2390	28.100088	3
71	2411	28.100273	5
71	3295	50.1	14
71	3305	50.100088	15
71	3326	50.100429	15
71	3388	51.1	0
71	3398	51.100088	2
71	3419	51.10026	3
71	3481	52.1	8
71	3491	52.100088	1
71	3512	52.100247	3
72	304	5.1	1
72	307	5.1	0
72	315	5.100088	1
72	325	5.100341	0
72	333	5.100429	1
72	343	5.100552	0
72	428	6.1	1
72	431	6.1	0
72	439	6.100088	1
72	449	6.100185	0
72	457	6.100273	1
72	467	6.100474	0
72	552	7.1	1
72	555	7.1	0
72	563	7.100088	1
72	573	7.100237	0
72	581	7.100325	1
72	591	7.1005	0
72	704	8.1	1
72	707	8.1	0
72	715	8.100088	1
72	725	8.100211	0
72	733	8.100299	1
72	743	8.100383	0
72	828	9.1	1
72	831	9.1	0
72	839	9.100088	1
72	849	9.100237	0
72	857	9.100325	1
72	867	9.100461	0
72	952	10.1	1
72	955	10.1	0
72	963	10.100088	1
72	976	10.10025	0
72	984	10.100338	1
72	997	10.100552	0
72	1287	14.1	1
72	1290	14.1	0
72	1298	14.100088	1
72	1311	14.100159	0
72	1319	14.100247	1
72	1332	14.100383	0
72	1420	15.1	1
72	1423	15.1	0
72	1431	15.100088	1
72	1444	15.100237	0
72	1452	15.100325	1
72	1465	15.100565	0
72	1553	16.1	1
72	1556	16.1	0
72	1564	16.100088	1
72	1577	16.100159	0
72	1585	16.100247	1
72	1598	16.10037	0
72	2154	26.1	1
72	2157	26.1	0
72	2165	26.100088	1
72	2178	26.100315	0
72	2186	26.100403	1
72	2199	26.100565	0
72	2267	27.1	1
72	2270	27.1	0
72	2278	27.100088	1
72	2291	27.100198	0
72	2299	27.100286	1
72	2312	27.100383	0
72	2380	28.1	1
72	2383	28.1	0
72	2391	28.100088	1
72	2404	28.100185	0
72	2412	28.100273	1
72	2425	28.100396	0
72	3295	50.1	1
72	3298	50.1	0
72	3306	50.100088	1
72	3319	50.100341	0
72	3327	50.100429	1
72	3340	50.100682	0
72	3388	51.1	1
72	3391	51.1	0
72	3399	51.100088	1
72	3412	51.100172	0
72	3420	51.10026	1
72	3433	51.100357	0
72	3481	52.1	1
72	3484	52.1	0
72	3492	52.100088	1
72	3505	52.100159	0
72	3513	52.100247	1
72	3526	52.100344	0
73	308	5.1	58
73	308	5.1	58
73	326	5.100341	58
73	432	6.1	58
73	432	6.1	58
73	450	6.100185	58
73	556	7.1	58
73	556	7.1	58
73	574	7.100237	58
73	708	8.1	58
73	708	8.1	58
73	726	8.100211	58
73	832	9.1	58
73	832	9.1	58
73	850	9.100237	58
73	956	10.1	58
73	956	10.1	58
73	977	10.10025	58
73	1291	14.1	58
73	1291	14.1	58
73	1312	14.100159	58
73	1424	15.1	58
73	1424	15.1	58
73	1445	15.100237	58
73	1557	16.1	58
73	1557	16.1	58
73	1578	16.100159	58
73	2158	26.1	58
73	2158	26.1	58
73	2179	26.100315	58
73	2271	27.1	58
73	2271	27.1	58
73	2292	27.100198	58
73	2384	28.1	58
73	2384	28.1	58
73	2405	28.100185	58
73	3299	50.1	58
73	3299	50.1	58
73	3320	50.100341	58
73	3392	51.1	58
73	3392	51.1	58
73	3413	51.100172	58
73	3485	52.1	58
73	3485	52.1	58
73	3506	52.100159	58
74	308	5.1	0
74	308	5.1	0
74	326	5.100341	0.000341
74	432	6.1	0
74	432	6.1	0
74	450	6.100185	0.000185
74	556	7.1	0
74	556	7.1	0
74	574	7.100237	0.000237
74	708	8.1	0
74	708	8.1	0
74	726	8.100211	0.000211
74	832	9.1	0
74	832	9.1	0
74	850	9.100237	0.000237
74	956	10.1	0
74	956	10.1	0
74	977	10.10025	0.00025
74	1291	14.1	0
74	1291	14.1	0
74	1312	14.100159	0.000159
74	1424	15.1	0
74	1424	15.1	0
74	1445	15.100237	0.000237
74	1557	16.1	0
74	1557	16.1	0
74	1578	16.100159	0.000159
74	2158	26.1	0
74	2158	26.1	0
74	2179	26.100315	0.000315
74	2271	27.1	0
74	2271	27.1	0
74	2292	27.100198	0.000198
74	2384	28.1	0
74	2384	28.1	0
74	2405	28.100185	0.000185
74	3299	50.1	0
74	3299	50.1	0
74	3320	50.100341	0.000341
74	3392	51.1	0
74	3392	51.1	0
74	3413	51.100172	0.000172
74	3485	52.1	0
74	3485	52.1	0
74	3506	52.100159	0.000159
75	308	5.1	1
75	308	5.1	2
75	314	5.100088	1
75	326	5.100341	2
75	332	5.100429	1
75	350	5.10064	0
75	432	6.1	1
75	432	6.1	2
75	438	6.100088	1
75	450	6.100185	2
75	456	6.100273	1
75	474	6.100562	0
75	556	7.1	1
75	556	7.1	2
75	562	7.100088	1
75	574	7.100237	2
75	580	7.100325	1
75	598	7.100588	0
75	708	8.1	1
75	708	8.1	2
75	714	8.100088	1
75	726	8.100211	2
75	732	8.100299	1
75	750	8.100471	0
75	832	9.1	1
75	832	9.1	2
75	838	9.100088	1
75	850	9.100237	2
75	856	9.100325	1
75	874	9.100549	0
75	956	10.1	1
75	956	10.1	2
75	962	10.100088	1
75	977	10.10025	2
75	983	10.100338	1
75	1004	10.10064	0
75	1291	14.1	1
75	1291	14.1	2
75	1297	14.100088	1
75	1312	14.100159	2
75	1318	14.100247	1
75	1339	14.100471	0
75	1424	15.1	1
75	1424	15.1	2
75	1430	15.100088	1
75	1445	15.100237	2
75	1451	15.100325	1
75	1472	15.100653	0
75	1557	16.1	1
75	1557	16.1	2
75	1563	16.100088	1
75	1578	16.100159	2
75	1584	16.100247	1
75	1605	16.100458	0
75	2158	26.1	1
75	2158	26.1	2
75	2164	26.100088	1
75	2179	26.100315	2
75	2185	26.100403	1
75	2206	26.100653	0
75	2271	27.1	1
75	2271	27.1	2
75	2277	27.100088	1
75	2292	27.100198	2
75	2298	27.100286	1
75	2319	27.100471	0
75	2384	28.1	1
75	2384	28.1	2
75	2390	28.100088	1
75	2405	28.100185	2
75	2411	28.100273	1
75	2432	28.100484	0
75	3299	50.1	1
75	3299	50.1	2
75	3305	50.100088	1
75	3320	50.100341	2
75	3326	50.100429	1
75	3347	50.10077	0
75	3392	51.1	1
75	3392	51.1	2
75	3398	51.100088	1
75	3413	51.100172	2
75	3419	51.10026	1
75	3440	51.100445	0
75	3485	52.1	1
75	3485	52.1	2
75	3491	52.100088	1
75	3506	52.100159	2
75	3512	52.100247	1
75	3533	52.100432	0
76	308	5.1	12000000
76	326	5.100341	12000000
76	344	5.100552	12000000
76	432	6.1	12000000
76	450	6.100185	12000000
76	468	6.100474	12000000
76	556	7.1	12000000
76	574	7.100237	12000000
76	592	7.1005	12000000
76	708	8.1	12000000
76	726	8.100211	12000000
76	744	8.100383	12000000
76	832	9.1	12000000
76	850	9.100237	12000000
76	868	9.100461	12000000
76	956	10.1	12000000
76	977	10.10025	12000000
76	998	10.100552	12000000
76	1291	14.1	12000000
76	1312	14.100159	12000000
76	1333	14.100383	12000000
76	1424	15.1	12000000
76	1445	15.100237	12000000
76	1466	15.100565	12000000
76	1557	16.1	12000000
76	1578	16.100159	12000000
76	1599	16.10037	12000000
76	2158	26.1	12000000
76	2179	26.100315	12000000
76	2200	26.100565	12000000
76	2271	27.1	12000000
76	2292	27.100198	12000000
76	2313	27.100383	12000000
76	2384	28.1	12000000
76	2405	28.100185	12000000
76	2426	28.100396	12000000
76	3299	50.1	12000000
76	3320	50.100341	12000000
76	3341	50.100682	12000000
76	3392	51.1	12000000
76	3413	51.100172	12000000
76	3434	51.100357	12000000
76	3485	52.1	12000000
76	3506	52.100159	12000000
76	3527	52.100344	12000000
77	308	5.1	58
77	326	5.100341	58
77	344	5.100552	58
77	432	6.1	58
77	450	6.100185	58
77	468	6.100474	58
77	556	7.1	58
77	574	7.100237	58
77	592	7.1005	58
77	708	8.1	58
77	726	8.100211	58
77	744	8.100383	58
77	832	9.1	58
77	850	9.100237	58
77	868	9.100461	58
77	956	10.1	58
77	977	10.10025	58
77	998	10.100552	58
77	1291	14.1	58
77	1312	14.100159	58
77	1333	14.100383	58
77	1424	15.1	58
77	1445	15.100237	58
77	1466	15.100565	58
77	1557	16.1	58
77	1578	16.100159	58
77	1599	16.10037	58
77	2158	26.1	58
77	2179	26.100315	58
77	2200	26.100565	58
77	2271	27.1	58
77	2292	27.100198	58
77	2313	27.100383	58
77	2384	28.1	58
77	2405	28.100185	58
77	2426	28.100396	58
77	3299	50.1	58
77	3320	50.100341	58
77	3341	50.100682	58
77	3392	51.1	58
77	3413	51.100172	58
77	3434	51.100357	58
77	3485	52.1	58
77	3506	52.100159	58
77	3527	52.100344	58
78	308	5.1	1
78	314	5.100088	0
78	326	5.100341	1
78	332	5.100429	0
78	344	5.100552	1
78	350	5.10064	0
78	432	6.1	1
78	438	6.100088	0
78	450	6.100185	1
78	456	6.100273	0
78	468	6.100474	1
78	474	6.100562	0
78	556	7.1	1
78	562	7.100088	0
78	574	7.100237	1
78	580	7.100325	0
78	592	7.1005	1
78	598	7.100588	0
78	708	8.1	1
78	714	8.100088	0
78	726	8.100211	1
78	732	8.100299	0
78	744	8.100383	1
78	750	8.100471	0
78	832	9.1	1
78	838	9.100088	0
78	850	9.100237	1
78	856	9.100325	0
78	868	9.100461	1
78	874	9.100549	0
78	956	10.1	1
78	962	10.100088	0
78	977	10.10025	1
78	983	10.100338	0
78	998	10.100552	1
78	1004	10.10064	0
78	1291	14.1	1
78	1297	14.100088	0
78	1312	14.100159	1
78	1318	14.100247	0
78	1333	14.100383	1
78	1339	14.100471	0
78	1424	15.1	1
78	1430	15.100088	0
78	1445	15.100237	1
78	1451	15.100325	0
78	1466	15.100565	1
78	1472	15.100653	0
78	1557	16.1	1
78	1563	16.100088	0
78	1578	16.100159	1
78	1584	16.100247	0
78	1599	16.10037	1
78	1605	16.100458	0
78	2158	26.1	1
78	2164	26.100088	0
78	2179	26.100315	1
78	2185	26.100403	0
78	2200	26.100565	1
78	2206	26.100653	0
78	2271	27.1	1
78	2277	27.100088	0
78	2292	27.100198	1
78	2298	27.100286	0
78	2313	27.100383	1
78	2319	27.100471	0
78	2384	28.1	1
78	2390	28.100088	0
78	2405	28.100185	1
78	2411	28.100273	0
78	2426	28.100396	1
78	2432	28.100484	0
78	3299	50.1	1
78	3305	50.100088	0
78	3320	50.100341	1
78	3326	50.100429	0
78	3341	50.100682	1
78	3347	50.10077	0
78	3392	51.1	1
78	3398	51.100088	0
78	3413	51.100172	1
78	3419	51.10026	0
78	3434	51.100357	1
78	3440	51.100445	0
78	3485	52.1	1
78	3491	52.100088	0
78	3506	52.100159	1
78	3512	52.100247	0
78	3527	52.100344	1
78	3533	52.100432	0
79	309	5.1	1
79	310	5.1	2
79	314	5.100088	1
79	315	5.100088	0
79	327	5.100341	1
79	328	5.100341	2
79	332	5.100429	1
79	333	5.100429	0
79	345	5.100552	1
79	346	5.100552	2
79	350	5.10064	1
79	351	5.10064	0
79	433	6.1	1
79	434	6.1	2
79	438	6.100088	1
79	439	6.100088	0
79	451	6.100185	1
79	452	6.100185	2
79	456	6.100273	1
79	457	6.100273	0
79	469	6.100474	1
79	470	6.100474	2
79	474	6.100562	1
79	475	6.100562	0
79	557	7.1	1
79	558	7.1	2
79	562	7.100088	1
79	563	7.100088	0
79	575	7.100237	1
79	576	7.100237	2
79	580	7.100325	1
79	581	7.100325	0
79	593	7.1005	1
79	594	7.1005	2
79	598	7.100588	1
79	599	7.100588	0
79	709	8.1	1
79	710	8.1	2
79	714	8.100088	1
79	715	8.100088	0
79	727	8.100211	1
79	728	8.100211	2
79	732	8.100299	1
79	733	8.100299	0
79	745	8.100383	1
79	746	8.100383	2
79	750	8.100471	1
79	751	8.100471	0
79	833	9.1	1
79	834	9.1	2
79	838	9.100088	1
79	839	9.100088	0
79	851	9.100237	1
79	852	9.100237	2
79	856	9.100325	1
79	857	9.100325	0
79	869	9.100461	1
79	870	9.100461	2
79	874	9.100549	1
79	875	9.100549	0
79	957	10.1	1
79	958	10.1	2
79	962	10.100088	1
79	963	10.100088	0
79	978	10.10025	1
79	979	10.10025	2
79	983	10.100338	1
79	984	10.100338	0
79	999	10.100552	1
79	1000	10.100552	2
79	1004	10.10064	1
79	1005	10.10064	0
79	1292	14.1	1
79	1293	14.1	2
79	1297	14.100088	1
79	1298	14.100088	0
79	1313	14.100159	1
79	1314	14.100159	2
79	1318	14.100247	1
79	1319	14.100247	0
79	1334	14.100383	1
79	1335	14.100383	2
79	1339	14.100471	1
79	1340	14.100471	0
79	1425	15.1	1
79	1426	15.1	2
79	1430	15.100088	1
79	1431	15.100088	0
79	1446	15.100237	1
79	1447	15.100237	2
79	1451	15.100325	1
79	1452	15.100325	0
79	1467	15.100565	1
79	1468	15.100565	2
79	1472	15.100653	1
79	1473	15.100653	0
79	1558	16.1	1
79	1559	16.1	2
79	1563	16.100088	1
79	1564	16.100088	0
79	1579	16.100159	1
79	1580	16.100159	2
79	1584	16.100247	1
79	1585	16.100247	0
79	1600	16.10037	1
79	1601	16.10037	2
79	1605	16.100458	1
79	1606	16.100458	0
79	2159	26.1	1
79	2160	26.1	2
79	2164	26.100088	1
79	2165	26.100088	0
79	2180	26.100315	1
79	2181	26.100315	2
79	2185	26.100403	1
79	2186	26.100403	0
79	2201	26.100565	1
79	2202	26.100565	2
79	2206	26.100653	1
79	2207	26.100653	0
79	2272	27.1	1
79	2273	27.1	2
79	2277	27.100088	1
79	2278	27.100088	0
79	2293	27.100198	1
79	2294	27.100198	2
79	2298	27.100286	1
79	2299	27.100286	0
79	2314	27.100383	1
79	2315	27.100383	2
79	2319	27.100471	1
79	2320	27.100471	0
79	2385	28.1	1
79	2386	28.1	2
79	2390	28.100088	1
79	2391	28.100088	0
79	2406	28.100185	1
79	2407	28.100185	2
79	2411	28.100273	1
79	2412	28.100273	0
79	2427	28.100396	1
79	2428	28.100396	2
79	2432	28.100484	1
79	2433	28.100484	0
79	3300	50.1	1
79	3301	50.1	2
79	3305	50.100088	1
79	3306	50.100088	0
79	3321	50.100341	1
79	3322	50.100341	2
79	3326	50.100429	1
79	3327	50.100429	0
79	3342	50.100682	1
79	3343	50.100682	2
79	3347	50.10077	1
79	3348	50.10077	0
79	3393	51.1	1
79	3394	51.1	2
79	3398	51.100088	1
79	3399	51.100088	0
79	3414	51.100172	1
79	3415	51.100172	2
79	3419	51.10026	1
79	3420	51.10026	0
79	3435	51.100357	1
79	3436	51.100357	2
79	3440	51.100445	1
79	3441	51.100445	0
79	3486	52.1	1
79	3487	52.1	2
79	3491	52.100088	1
79	3492	52.100088	0
79	3507	52.100159	1
79	3508	52.100159	2
79	3512	52.100247	1
79	3513	52.100247	0
79	3528	52.100344	1
79	3529	52.100344	2
79	3533	52.100432	1
79	3534	52.100432	0
80	314	5.100088	58
80	332	5.100429	58
80	350	5.10064	58
80	438	6.100088	58
80	456	6.100273	58
80	474	6.100562	58
80	562	7.100088	58
80	580	7.100325	58
80	598	7.100588	58
80	714	8.100088	58
80	732	8.100299	58
80	750	8.100471	58
80	838	9.100088	58
80	856	9.100325	58
80	874	9.100549	58
80	962	10.100088	58
80	983	10.100338	58
80	1004	10.10064	58
80	1297	14.100088	58
80	1318	14.100247	58
80	1339	14.100471	58
80	1430	15.100088	58
80	1451	15.100325	58
80	1472	15.100653	58
80	1563	16.100088	58
80	1584	16.100247	58
80	1605	16.100458	58
80	2164	26.100088	58
80	2185	26.100403	58
80	2206	26.100653	58
80	2277	27.100088	58
80	2298	27.100286	58
80	2319	27.100471	58
80	2390	28.100088	58
80	2411	28.100273	58
80	2432	28.100484	58
80	3305	50.100088	58
80	3326	50.100429	58
80	3347	50.10077	58
80	3398	51.100088	58
80	3419	51.10026	58
80	3440	51.100445	58
80	3491	52.100088	58
80	3512	52.100247	58
80	3533	52.100432	58
81	314	5.100088	58
81	332	5.100429	58
81	350	5.10064	58
81	438	6.100088	58
81	456	6.100273	58
81	474	6.100562	58
81	562	7.100088	58
81	580	7.100325	58
81	598	7.100588	58
81	714	8.100088	58
81	732	8.100299	58
81	750	8.100471	58
81	838	9.100088	58
81	856	9.100325	58
81	874	9.100549	58
81	962	10.100088	58
81	983	10.100338	58
81	1004	10.10064	58
81	1297	14.100088	58
81	1318	14.100247	58
81	1339	14.100471	58
81	1430	15.100088	58
81	1451	15.100325	58
81	1472	15.100653	58
81	1563	16.100088	58
81	1584	16.100247	58
81	1605	16.100458	58
81	2164	26.100088	58
81	2185	26.100403	58
81	2206	26.100653	58
81	2277	27.100088	58
81	2298	27.100286	58
81	2319	27.100471	58
81	2390	28.100088	58
81	2411	28.100273	58
81	2432	28.100484	58
81	3305	50.100088	58
81	3326	50.100429	58
81	3347	50.10077	58
81	3398	51.100088	58
81	3419	51.10026	58
81	3440	51.100445	58
81	3491	52.100088	58
81	3512	52.100247	58
81	3533	52.100432	58
82	314	5.100088	58
82	332	5.100429	58
82	350	5.10064	58
82	438	6.100088	58
82	456	6.100273	58
82	474	6.100562	58
82	562	7.100088	58
82	580	7.100325	58
82	598	7.100588	58
82	714	8.100088	58
82	732	8.100299	58
82	750	8.100471	58
82	838	9.100088	58
82	856	9.100325	58
82	874	9.100549	58
82	962	10.100088	58
82	983	10.100338	58
82	1004	10.10064	58
82	1297	14.100088	58
82	1318	14.100247	58
82	1339	14.100471	58
82	1430	15.100088	58
82	1451	15.100325	58
82	1472	15.100653	58
82	1563	16.100088	58
82	1584	16.100247	58
82	1605	16.100458	58
82	2164	26.100088	58
82	2185	26.100403	58
82	2206	26.100653	58
82	2277	27.100088	58
82	2298	27.100286	58
82	2319	27.100471	58
82	2390	28.100088	58
82	2411	28.100273	58
82	2432	28.100484	58
82	3305	50.100088	58
82	3326	50.100429	58
82	3347	50.10077	58
82	3398	51.100088	58
82	3419	51.10026	58
82	3440	51.100445	58
82	3491	52.100088	58
82	3512	52.100247	58
82	3533	52.100432	58
83	314	5.100088	58
83	332	5.100429	58
83	350	5.10064	58
83	438	6.100088	58
83	456	6.100273	58
83	474	6.100562	58
83	562	7.100088	58
83	580	7.100325	58
83	598	7.100588	58
83	714	8.100088	58
83	732	8.100299	58
83	750	8.100471	58
83	838	9.100088	58
83	856	9.100325	58
83	874	9.100549	58
83	962	10.100088	58
83	983	10.100338	58
83	1004	10.10064	58
83	1297	14.100088	58
83	1318	14.100247	58
83	1339	14.100471	58
83	1430	15.100088	58
83	1451	15.100325	58
83	1472	15.100653	58
83	1563	16.100088	58
83	1584	16.100247	58
83	1605	16.100458	58
83	2164	26.100088	58
83	2185	26.100403	58
83	2206	26.100653	58
83	2277	27.100088	58
83	2298	27.100286	58
83	2319	27.100471	58
83	2390	28.100088	58
83	2411	28.100273	58
83	2432	28.100484	58
83	3305	50.100088	58
83	3326	50.100429	58
83	3347	50.10077	58
83	3398	51.100088	58
83	3419	51.10026	58
83	3440	51.100445	58
83	3491	52.100088	58
83	3512	52.100247	58
83	3533	52.100432	58
84	314	5.100088	8.8e-05
84	332	5.100429	0.000429
84	350	5.10064	0.000299
84	438	6.100088	8.8e-05
84	456	6.100273	0.000273
84	474	6.100562	0.000377
84	562	7.100088	8.8e-05
84	580	7.100325	0.000325
84	598	7.100588	0.000351
84	714	8.100088	8.8e-05
84	732	8.100299	0.000299
84	750	8.100471	0.00026
84	838	9.100088	8.8e-05
84	856	9.100325	0.000325
84	874	9.100549	0.000312
84	962	10.100088	8.8e-05
84	983	10.100338	0.000338
84	1004	10.10064	0.00039
84	1297	14.100088	8.8e-05
84	1318	14.100247	0.000247
84	1339	14.100471	0.000312
84	1430	15.100088	8.8e-05
84	1451	15.100325	0.000325
84	1472	15.100653	0.000416
84	1563	16.100088	8.8e-05
84	1584	16.100247	0.000247
84	1605	16.100458	0.000299
84	2164	26.100088	8.8e-05
84	2185	26.100403	0.000403
84	2206	26.100653	0.000338
84	2277	27.100088	8.8e-05
84	2298	27.100286	0.000286
84	2319	27.100471	0.000273
84	2390	28.100088	8.8e-05
84	2411	28.100273	0.000273
84	2432	28.100484	0.000299
84	3305	50.100088	8.8e-05
84	3326	50.100429	0.000429
84	3347	50.10077	0.000429
84	3398	51.100088	8.8e-05
84	3419	51.10026	0.00026
84	3440	51.100445	0.000273
84	3491	52.100088	8.8e-05
84	3512	52.100247	0.000247
84	3533	52.100432	0.000273
85	317	5.100089064905	58
85	335	5.100430064905	58
85	353	5.100641064905	58
85	445	6.10008899917	58
85	463	6.10027399917	58
85	481	6.10056299917	58
85	565	7.100088933427	58
85	583	7.100325933427	58
85	601	7.100588933427	58
85	717	8.100088867665	58
85	735	8.100299867665	58
85	753	8.100471867665	58
85	841	9.100088801892	58
85	859	9.100325801892	58
85	877	9.100549801892	58
85	965	10.100088736187	58
85	986	10.100338736187	58
85	1007	10.100640736187	58
85	1300	14.100088473349	58
85	1321	14.100247473349	58
85	1342	14.100471473349	58
85	1433	15.100088407652	58
85	1454	15.100325407652	58
85	1475	15.100653407652	58
85	1566	16.100088341953	58
85	1587	16.100247341953	58
85	1608	16.100458341953	58
85	2175	26.10008810841	58
85	2196	26.10040310841	58
85	2217	26.10065310841	58
85	2288	27.10008810841	58
85	2309	27.10028610841	58
85	2330	27.10047110841	58
85	2401	28.10008810841	58
85	2422	28.10027310841	58
85	2443	28.10048410841	58
85	3316	50.100088110509	58
85	3337	50.100429110509	58
85	3358	50.100770110509	58
85	3409	51.10008811091	58
85	3430	51.10026011091	58
85	3451	51.10044511091	58
85	3502	52.10008811091	58
85	3523	52.10024711091	58
85	3544	52.10043211091	58
86	317	5.100089064905	58
86	335	5.100430064905	58
86	353	5.100641064905	58
86	445	6.10008899917	58
86	463	6.10027399917	58
86	481	6.10056299917	58
86	565	7.100088933427	58
86	583	7.100325933427	58
86	601	7.100588933427	58
86	717	8.100088867665	58
86	735	8.100299867665	58
86	753	8.100471867665	58
86	841	9.100088801892	58
86	859	9.100325801892	58
86	877	9.100549801892	58
86	965	10.100088736187	58
86	986	10.100338736187	58
86	1007	10.100640736187	58
86	1300	14.100088473349	58
86	1321	14.100247473349	58
86	1342	14.100471473349	58
86	1433	15.100088407652	58
86	1454	15.100325407652	58
86	1475	15.100653407652	58
86	1566	16.100088341953	58
86	1587	16.100247341953	58
86	1608	16.100458341953	58
86	2175	26.10008810841	58
86	2196	26.10040310841	58
86	2217	26.10065310841	58
86	2288	27.10008810841	58
86	2309	27.10028610841	58
86	2330	27.10047110841	58
86	2401	28.10008810841	58
86	2422	28.10027310841	58
86	2443	28.10048410841	58
86	3316	50.100088110509	58
86	3337	50.100429110509	58
86	3358	50.100770110509	58
86	3409	51.10008811091	58
86	3430	51.10026011091	58
86	3451	51.10044511091	58
86	3502	52.10008811091	58
86	3523	52.10024711091	58
86	3544	52.10043211091	58
87	317	5.100089064905	58
87	335	5.100430064905	58
87	353	5.100641064905	58
87	445	6.10008899917	58
87	463	6.10027399917	58
87	481	6.10056299917	58
87	565	7.100088933427	58
87	583	7.100325933427	58
87	601	7.100588933427	58
87	717	8.100088867665	58
87	735	8.100299867665	58
87	753	8.100471867665	58
87	841	9.100088801892	58
87	859	9.100325801892	58
87	877	9.100549801892	58
87	965	10.100088736187	58
87	986	10.100338736187	58
87	1007	10.100640736187	58
87	1300	14.100088473349	58
87	1321	14.100247473349	58
87	1342	14.100471473349	58
87	1433	15.100088407652	58
87	1454	15.100325407652	58
87	1475	15.100653407652	58
87	1566	16.100088341953	58
87	1587	16.100247341953	58
87	1608	16.100458341953	58
87	2175	26.10008810841	58
87	2196	26.10040310841	58
87	2217	26.10065310841	58
87	2288	27.10008810841	58
87	2309	27.10028610841	58
87	2330	27.10047110841	58
87	2401	28.10008810841	58
87	2422	28.10027310841	58
87	2443	28.10048410841	58
87	3316	50.100088110509	58
87	3337	50.100429110509	58
87	3358	50.100770110509	58
87	3409	51.10008811091	58
87	3430	51.10026011091	58
87	3451	51.10044511091	58
87	3502	52.10008811091	58
87	3523	52.10024711091	58
87	3544	52.10043211091	58
88	317	5.100089064905	58
88	335	5.100430064905	58
88	353	5.100641064905	58
88	445	6.10008899917	58
88	463	6.10027399917	58
88	481	6.10056299917	58
88	565	7.100088933427	58
88	583	7.100325933427	58
88	601	7.100588933427	58
88	717	8.100088867665	58
88	735	8.100299867665	58
88	753	8.100471867665	58
88	841	9.100088801892	58
88	859	9.100325801892	58
88	877	9.100549801892	58
88	965	10.100088736187	58
88	986	10.100338736187	58
88	1007	10.100640736187	58
88	1300	14.100088473349	58
88	1321	14.100247473349	58
88	1342	14.100471473349	58
88	1433	15.100088407652	58
88	1454	15.100325407652	58
88	1475	15.100653407652	58
88	1566	16.100088341953	58
88	1587	16.100247341953	58
88	1608	16.100458341953	58
88	2175	26.10008810841	58
88	2196	26.10040310841	58
88	2217	26.10065310841	58
88	2288	27.10008810841	58
88	2309	27.10028610841	58
88	2330	27.10047110841	58
88	2401	28.10008810841	58
88	2422	28.10027310841	58
88	2443	28.10048410841	58
88	3316	50.100088110509	58
88	3337	50.100429110509	58
88	3358	50.100770110509	58
88	3409	51.10008811091	58
88	3430	51.10026011091	58
88	3451	51.10044511091	58
88	3502	52.10008811091	58
88	3523	52.10024711091	58
88	3544	52.10043211091	58
89	317	5.100089064905	58
89	335	5.100430064905	58
89	353	5.100641064905	58
89	445	6.10008899917	58
89	463	6.10027399917	58
89	481	6.10056299917	58
89	565	7.100088933427	58
89	583	7.100325933427	58
89	601	7.100588933427	58
89	717	8.100088867665	58
89	735	8.100299867665	58
89	753	8.100471867665	58
89	841	9.100088801892	58
89	859	9.100325801892	58
89	877	9.100549801892	58
89	965	10.100088736187	58
89	986	10.100338736187	58
89	1007	10.100640736187	58
89	1300	14.100088473349	58
89	1321	14.100247473349	58
89	1342	14.100471473349	58
89	1433	15.100088407652	58
89	1454	15.100325407652	58
89	1475	15.100653407652	58
89	1566	16.100088341953	58
89	1587	16.100247341953	58
89	1608	16.100458341953	58
89	2175	26.10008810841	58
89	2196	26.10040310841	58
89	2217	26.10065310841	58
89	2288	27.10008810841	58
89	2309	27.10028610841	58
89	2330	27.10047110841	58
89	2401	28.10008810841	58
89	2422	28.10027310841	58
89	2443	28.10048410841	58
89	3316	50.100088110509	58
89	3337	50.100429110509	58
89	3358	50.100770110509	58
89	3409	51.10008811091	58
89	3430	51.10026011091	58
89	3451	51.10044511091	58
89	3502	52.10008811091	58
89	3523	52.10024711091	58
89	3544	52.10043211091	58
90	317	5.100089064905	30
90	335	5.100430064905	30
90	353	5.100641064905	30
90	445	6.10008899917	30
90	463	6.10027399917	30
90	481	6.10056299917	30
90	565	7.100088933427	30
90	583	7.100325933427	30
90	601	7.100588933427	30
90	717	8.100088867665	30
90	735	8.100299867665	30
90	753	8.100471867665	30
90	841	9.100088801892	30
90	859	9.100325801892	30
90	877	9.100549801892	30
90	965	10.100088736187	30
90	986	10.100338736187	30
90	1007	10.100640736187	30
90	1300	14.100088473349	30
90	1321	14.100247473349	30
90	1342	14.100471473349	30
90	1433	15.100088407652	30
90	1454	15.100325407652	30
90	1475	15.100653407652	30
90	1566	16.100088341953	30
90	1587	16.100247341953	30
90	1608	16.100458341953	30
90	2175	26.10008810841	30
90	2196	26.10040310841	30
90	2217	26.10065310841	30
90	2288	27.10008810841	30
90	2309	27.10028610841	30
90	2330	27.10047110841	30
90	2401	28.10008810841	30
90	2422	28.10027310841	30
90	2443	28.10048410841	30
90	3316	50.100088110509	30
90	3337	50.100429110509	30
90	3358	50.100770110509	30
90	3409	51.10008811091	30
90	3430	51.10026011091	30
90	3451	51.10044511091	30
90	3502	52.10008811091	30
90	3523	52.10024711091	30
90	3544	52.10043211091	30
91	321	5.100089064911	58
91	339	5.100430064911	58
91	357	5.100641064911	58
91	441	6.100088999167	58
91	459	6.100273999167	58
91	477	6.100562999167	58
91	569	7.100088933466	58
91	587	7.100325933466	58
91	605	7.100588933466	58
91	721	8.100088867825	58
91	739	8.100299867825	58
91	757	8.100471867825	58
91	845	9.100088802081	58
91	863	9.100325802081	58
91	881	9.100549802081	58
91	969	10.100088736373	58
91	990	10.100338736373	58
91	1011	10.100640736373	58
91	1304	14.100088473393	58
91	1325	14.100247473393	58
91	1346	14.100471473393	58
91	1437	15.1000884077	58
91	1458	15.1003254077	58
91	1479	15.1006534077	58
91	1570	16.100088341968	58
91	1591	16.100247341968	58
91	1612	16.100458341968	58
91	2171	26.100088094588	58
91	2192	26.100403094588	58
91	2213	26.100653094588	58
91	2284	27.100088094588	58
91	2305	27.100286094588	58
91	2326	27.100471094588	58
91	2397	28.100088094588	58
91	2418	28.100273094588	58
91	2439	28.100484094588	58
91	3312	50.10008810459	58
91	3333	50.10042910459	58
91	3354	50.10077010459	58
91	3405	51.100088105127	58
91	3426	51.100260105127	58
91	3447	51.100445105127	58
91	3498	52.100088105127	58
91	3519	52.100247105127	58
91	3540	52.100432105127	58
92	321	5.100089064911	58
92	339	5.100430064911	58
92	357	5.100641064911	58
92	441	6.100088999167	58
92	459	6.100273999167	58
92	477	6.100562999167	58
92	569	7.100088933466	58
92	587	7.100325933466	58
92	605	7.100588933466	58
92	721	8.100088867825	58
92	739	8.100299867825	58
92	757	8.100471867825	58
92	845	9.100088802081	58
92	863	9.100325802081	58
92	881	9.100549802081	58
92	969	10.100088736373	58
92	990	10.100338736373	58
92	1011	10.100640736373	58
92	1304	14.100088473393	58
92	1325	14.100247473393	58
92	1346	14.100471473393	58
92	1437	15.1000884077	58
92	1458	15.1003254077	58
92	1479	15.1006534077	58
92	1570	16.100088341968	58
92	1591	16.100247341968	58
92	1612	16.100458341968	58
92	2171	26.100088094588	58
92	2192	26.100403094588	58
92	2213	26.100653094588	58
92	2284	27.100088094588	58
92	2305	27.100286094588	58
92	2326	27.100471094588	58
92	2397	28.100088094588	58
92	2418	28.100273094588	58
92	2439	28.100484094588	58
92	3312	50.10008810459	58
92	3333	50.10042910459	58
92	3354	50.10077010459	58
92	3405	51.100088105127	58
92	3426	51.100260105127	58
92	3447	51.100445105127	58
92	3498	52.100088105127	58
92	3519	52.100247105127	58
92	3540	52.100432105127	58
93	321	5.100089064911	58
93	339	5.100430064911	58
93	357	5.100641064911	58
93	441	6.100088999167	58
93	459	6.100273999167	58
93	477	6.100562999167	58
93	569	7.100088933466	58
93	587	7.100325933466	58
93	605	7.100588933466	58
93	721	8.100088867825	58
93	739	8.100299867825	58
93	757	8.100471867825	58
93	845	9.100088802081	58
93	863	9.100325802081	58
93	881	9.100549802081	58
93	969	10.100088736373	58
93	990	10.100338736373	58
93	1011	10.100640736373	58
93	1304	14.100088473393	58
93	1325	14.100247473393	58
93	1346	14.100471473393	58
93	1437	15.1000884077	58
93	1458	15.1003254077	58
93	1479	15.1006534077	58
93	1570	16.100088341968	58
93	1591	16.100247341968	58
93	1612	16.100458341968	58
93	2171	26.100088094588	58
93	2192	26.100403094588	58
93	2213	26.100653094588	58
93	2284	27.100088094588	58
93	2305	27.100286094588	58
93	2326	27.100471094588	58
93	2397	28.100088094588	58
93	2418	28.100273094588	58
93	2439	28.100484094588	58
93	3312	50.10008810459	58
93	3333	50.10042910459	58
93	3354	50.10077010459	58
93	3405	51.100088105127	58
93	3426	51.100260105127	58
93	3447	51.100445105127	58
93	3498	52.100088105127	58
93	3519	52.100247105127	58
93	3540	52.100432105127	58
94	321	5.100089064911	58
94	339	5.100430064911	58
94	357	5.100641064911	58
94	441	6.100088999167	58
94	459	6.100273999167	58
94	477	6.100562999167	58
94	569	7.100088933466	58
94	587	7.100325933466	58
94	605	7.100588933466	58
94	721	8.100088867825	58
94	739	8.100299867825	58
94	757	8.100471867825	58
94	845	9.100088802081	58
94	863	9.100325802081	58
94	881	9.100549802081	58
94	969	10.100088736373	58
94	990	10.100338736373	58
94	1011	10.100640736373	58
94	1304	14.100088473393	58
94	1325	14.100247473393	58
94	1346	14.100471473393	58
94	1437	15.1000884077	58
94	1458	15.1003254077	58
94	1479	15.1006534077	58
94	1570	16.100088341968	58
94	1591	16.100247341968	58
94	1612	16.100458341968	58
94	2171	26.100088094588	58
94	2192	26.100403094588	58
94	2213	26.100653094588	58
94	2284	27.100088094588	58
94	2305	27.100286094588	58
94	2326	27.100471094588	58
94	2397	28.100088094588	58
94	2418	28.100273094588	58
94	2439	28.100484094588	58
94	3312	50.10008810459	58
94	3333	50.10042910459	58
94	3354	50.10077010459	58
94	3405	51.100088105127	58
94	3426	51.100260105127	58
94	3447	51.100445105127	58
94	3498	52.100088105127	58
94	3519	52.100247105127	58
94	3540	52.100432105127	58
95	321	5.100089064911	58
95	339	5.100430064911	58
95	357	5.100641064911	58
95	441	6.100088999167	58
95	459	6.100273999167	58
95	477	6.100562999167	58
95	569	7.100088933466	58
95	587	7.100325933466	58
95	605	7.100588933466	58
95	721	8.100088867825	58
95	739	8.100299867825	58
95	757	8.100471867825	58
95	845	9.100088802081	58
95	863	9.100325802081	58
95	881	9.100549802081	58
95	969	10.100088736373	58
95	990	10.100338736373	58
95	1011	10.100640736373	58
95	1304	14.100088473393	58
95	1325	14.100247473393	58
95	1346	14.100471473393	58
95	1437	15.1000884077	58
95	1458	15.1003254077	58
95	1479	15.1006534077	58
95	1570	16.100088341968	58
95	1591	16.100247341968	58
95	1612	16.100458341968	58
95	2171	26.100088094588	58
95	2192	26.100403094588	58
95	2213	26.100653094588	58
95	2284	27.100088094588	58
95	2305	27.100286094588	58
95	2326	27.100471094588	58
95	2397	28.100088094588	58
95	2418	28.100273094588	58
95	2439	28.100484094588	58
95	3312	50.10008810459	58
95	3333	50.10042910459	58
95	3354	50.10077010459	58
95	3405	51.100088105127	58
95	3426	51.100260105127	58
95	3447	51.100445105127	58
95	3498	52.100088105127	58
95	3519	52.100247105127	58
95	3540	52.100432105127	58
96	321	5.100089064911	30
96	339	5.100430064911	30
96	357	5.100641064911	30
96	441	6.100088999167	30
96	459	6.100273999167	30
96	477	6.100562999167	30
96	569	7.100088933466	30
96	587	7.100325933466	30
96	605	7.100588933466	30
96	721	8.100088867825	30
96	739	8.100299867825	30
96	757	8.100471867825	30
96	845	9.100088802081	30
96	863	9.100325802081	30
96	881	9.100549802081	30
96	969	10.100088736373	30
96	990	10.100338736373	30
96	1011	10.100640736373	30
96	1304	14.100088473393	30
96	1325	14.100247473393	30
96	1346	14.100471473393	30
96	1437	15.1000884077	30
96	1458	15.1003254077	30
96	1479	15.1006534077	30
96	1570	16.100088341968	30
96	1591	16.100247341968	30
96	1612	16.100458341968	30
96	2171	26.100088094588	30
96	2192	26.100403094588	30
96	2213	26.100653094588	30
96	2284	27.100088094588	30
96	2305	27.100286094588	30
96	2326	27.100471094588	30
96	2397	28.100088094588	30
96	2418	28.100273094588	30
96	2439	28.100484094588	30
96	3312	50.10008810459	30
96	3333	50.10042910459	30
96	3354	50.10077010459	30
96	3405	51.100088105127	30
96	3426	51.100260105127	30
96	3447	51.100445105127	30
96	3498	52.100088105127	30
96	3519	52.100247105127	30
96	3540	52.100432105127	30
97	673	8.1	44
97	674	8.1	44
97	675	8.1	44
97	1070	11.1	44
97	1071	11.1	44
97	1072	11.1	44
97	1671	17.1	44
97	1672	17.1	44
97	1673	17.1	44
97	2480	29.1	44
97	2481	29.1	44
97	2482	29.1	44
97	3563	53.1	44
97	3564	53.1	44
97	3565	53.1	44
98	973	10.100089041253	58
98	994	10.100339041253	58
98	1015	10.100641041253	58
98	1308	14.100088669514	58
98	1329	14.100247669514	58
98	1350	14.100471669514	58
98	1441	15.100088576606	58
98	1462	15.100325576606	58
98	1483	15.100653576606	58
98	1574	16.100088483553	58
98	1595	16.100247483553	58
98	1616	16.100458483553	58
98	2167	26.100088055743	58
98	2188	26.100403055743	58
98	2209	26.100653055743	58
98	2280	27.100088055743	58
98	2301	27.100286055743	58
98	2322	27.100471055743	58
98	2393	28.100088055743	58
98	2414	28.100273055743	58
98	2435	28.100484055743	58
98	3308	50.100088092285	58
98	3329	50.100429092285	58
98	3350	50.100770092285	58
98	3401	51.100088094723	58
98	3422	51.100260094723	58
98	3443	51.100445094723	58
98	3494	52.100088094723	58
98	3515	52.100247094723	58
98	3536	52.100432094723	58
99	973	10.100089041253	58
99	994	10.100339041253	58
99	1015	10.100641041253	58
99	1308	14.100088669514	58
99	1329	14.100247669514	58
99	1350	14.100471669514	58
99	1441	15.100088576606	58
99	1462	15.100325576606	58
99	1483	15.100653576606	58
99	1574	16.100088483553	58
99	1595	16.100247483553	58
99	1616	16.100458483553	58
99	2167	26.100088055743	58
99	2188	26.100403055743	58
99	2209	26.100653055743	58
99	2280	27.100088055743	58
99	2301	27.100286055743	58
99	2322	27.100471055743	58
99	2393	28.100088055743	58
99	2414	28.100273055743	58
99	2435	28.100484055743	58
99	3308	50.100088092285	58
99	3329	50.100429092285	58
99	3350	50.100770092285	58
99	3401	51.100088094723	58
99	3422	51.100260094723	58
99	3443	51.100445094723	58
99	3494	52.100088094723	58
99	3515	52.100247094723	58
99	3536	52.100432094723	58
100	973	10.100089041253	58
100	994	10.100339041253	58
100	1015	10.100641041253	58
100	1308	14.100088669514	58
100	1329	14.100247669514	58
100	1350	14.100471669514	58
100	1441	15.100088576606	58
100	1462	15.100325576606	58
100	1483	15.100653576606	58
100	1574	16.100088483553	58
100	1595	16.100247483553	58
100	1616	16.100458483553	58
100	2167	26.100088055743	58
100	2188	26.100403055743	58
100	2209	26.100653055743	58
100	2280	27.100088055743	58
100	2301	27.100286055743	58
100	2322	27.100471055743	58
100	2393	28.100088055743	58
100	2414	28.100273055743	58
100	2435	28.100484055743	58
100	3308	50.100088092285	58
100	3329	50.100429092285	58
100	3350	50.100770092285	58
100	3401	51.100088094723	58
100	3422	51.100260094723	58
100	3443	51.100445094723	58
100	3494	52.100088094723	58
100	3515	52.100247094723	58
100	3536	52.100432094723	58
101	973	10.100089041253	58
101	994	10.100339041253	58
101	1015	10.100641041253	58
101	1308	14.100088669514	58
101	1329	14.100247669514	58
101	1350	14.100471669514	58
101	1441	15.100088576606	58
101	1462	15.100325576606	58
101	1483	15.100653576606	58
101	1574	16.100088483553	58
101	1595	16.100247483553	58
101	1616	16.100458483553	58
101	2167	26.100088055743	58
101	2188	26.100403055743	58
101	2209	26.100653055743	58
101	2280	27.100088055743	58
101	2301	27.100286055743	58
101	2322	27.100471055743	58
101	2393	28.100088055743	58
101	2414	28.100273055743	58
101	2435	28.100484055743	58
101	3308	50.100088092285	58
101	3329	50.100429092285	58
101	3350	50.100770092285	58
101	3401	51.100088094723	58
101	3422	51.100260094723	58
101	3443	51.100445094723	58
101	3494	52.100088094723	58
101	3515	52.100247094723	58
101	3536	52.100432094723	58
102	973	10.100089041253	58
102	994	10.100339041253	58
102	1015	10.100641041253	58
102	1308	14.100088669514	58
102	1329	14.100247669514	58
102	1350	14.100471669514	58
102	1441	15.100088576606	58
102	1462	15.100325576606	58
102	1483	15.100653576606	58
102	1574	16.100088483553	58
102	1595	16.100247483553	58
102	1616	16.100458483553	58
102	2167	26.100088055743	58
102	2188	26.100403055743	58
102	2209	26.100653055743	58
102	2280	27.100088055743	58
102	2301	27.100286055743	58
102	2322	27.100471055743	58
102	2393	28.100088055743	58
102	2414	28.100273055743	58
102	2435	28.100484055743	58
102	3308	50.100088092285	58
102	3329	50.100429092285	58
102	3350	50.100770092285	58
102	3401	51.100088094723	58
102	3422	51.100260094723	58
102	3443	51.100445094723	58
102	3494	52.100088094723	58
102	3515	52.100247094723	58
102	3536	52.100432094723	58
103	973	10.100089041253	30
103	994	10.100339041253	30
103	1015	10.100641041253	30
103	1308	14.100088669514	30
103	1329	14.100247669514	30
103	1350	14.100471669514	30
103	1441	15.100088576606	30
103	1462	15.100325576606	30
103	1483	15.100653576606	30
103	1574	16.100088483553	30
103	1595	16.100247483553	30
103	1616	16.100458483553	30
103	2167	26.100088055743	30
103	2188	26.100403055743	30
103	2209	26.100653055743	30
103	2280	27.100088055743	30
103	2301	27.100286055743	30
103	2322	27.100471055743	30
103	2393	28.100088055743	30
103	2414	28.100273055743	30
103	2435	28.100484055743	30
103	3308	50.100088092285	30
103	3329	50.100429092285	30
103	3350	50.100770092285	30
103	3401	51.100088094723	30
103	3422	51.100260094723	30
103	3443	51.100445094723	30
103	3494	52.100088094723	30
103	3515	52.100247094723	30
103	3536	52.100432094723	30
104	3692	0.1	0
104	3692	0.2	0
104	3692	0.3	0
104	3692	0.4	0
104	3692	0.5	0
104	3692	0.6	0
104	3692	0.7	0
104	3692	0.8	0
104	3692	0.9	0
104	3692	1	0
104	3692	1.1	0
104	3692	1.2	0
104	3692	1.3	0
104	3692	1.4	0
104	3692	1.5	0
104	3692	1.6	0
104	3692	1.7	0
104	3692	1.8	0
104	3692	1.9	0
104	3692	2	0
104	3692	2.1	0
104	3692	2.2	0
104	3692	2.3	0
104	3692	2.4	0
104	3692	2.5	0
104	3692	2.6	0
104	3692	2.7	0
104	3692	2.8	0
104	3692	2.9	0
104	3692	3	0
104	3692	3.1	0
104	3692	3.2	0
104	3692	3.3	0
104	3692	3.4	0
104	3692	3.5	0
104	3692	3.6	0
104	3692	3.7	0
104	3692	3.8	0
104	3692	3.9	0
104	3692	4	0
104	3692	4.1	0
104	3692	4.2	0
104	3692	4.3	0
104	3692	4.4	0
104	3692	4.5	0
104	3692	4.6	0
104	3692	4.7	0
104	3692	4.8	0
104	3692	4.9	0
104	3692	5	0
104	3692	5.1	0
104	3692	5.2	0
104	3692	5.3	0
104	3692	5.4	0
104	3692	5.5	0
104	3692	5.6	0
104	3692	5.7	0
104	3692	5.8	0
104	3692	5.9	0
104	3692	6	0
104	3692	6.1	0
104	3692	6.2	0
104	3692	6.3	0
104	3692	6.4	0
104	3692	6.5	0
104	3692	6.6	0
104	3692	6.7	0
104	3692	6.8	0
104	3692	6.9	0
104	3692	7	0
104	3692	7.1	0
104	3692	7.2	0
104	3692	7.3	0
104	3692	7.4	0
104	3692	7.5	0
104	3692	7.6	0
104	3692	7.7	0
104	3692	7.8	0
104	3692	7.9	0
104	3692	8	0
104	3692	8.1	0
104	3692	8.2	0
104	3692	8.3	0
104	3692	8.4	0
104	3692	8.5	0
104	3692	8.6	0
104	3692	8.7	0
104	3692	8.8	0
104	3692	8.9	0
104	3692	9	0
104	3692	9.1	0
104	3692	9.2	0
104	3692	9.3	0
104	3692	9.4	0
104	3692	9.5	0
104	3692	9.6	0
104	3692	9.7	0
104	3692	9.8	0
104	3692	9.9	0
104	3692	10	0
104	3692	10.1	0
104	3692	10.2	0
104	3692	10.3	0
104	3692	10.4	0
104	3692	10.5	0
104	3692	10.6	0
104	3692	10.7	0
104	3692	10.8	0
104	3692	10.9	0
104	3692	11	0
104	3692	11.1	0
104	3692	11.2	0
104	3692	11.3	0
104	3692	11.4	0
104	3692	11.5	0
104	3692	11.6	0
104	3692	11.7	0
104	3692	11.8	0
104	3692	11.9	0
104	3692	12	0
104	3692	12.1	0
104	3692	12.2	0
104	3692	12.3	0
104	3692	12.4	0
104	3692	12.5	0
104	3692	12.6	0
104	3692	12.7	0
104	3692	12.8	0
104	3692	12.9	0
104	3692	13	0
104	3692	13.1	0
104	3692	13.2	0
104	3692	13.3	0
104	3692	13.4	0
104	3692	13.5	0
104	3692	13.6	0
104	3692	13.7	0
104	3692	13.8	0
104	3692	13.9	0
104	3692	14	0
104	3692	14.1	0
104	3692	14.2	0
104	3692	14.3	0
104	3692	14.4	0
104	3692	14.5	0
104	3692	14.6	0
104	3692	14.7	0
104	3692	14.8	0
104	3692	14.9	0
104	3692	15	0
104	3692	15.1	0
104	3692	15.2	0
104	3692	15.3	0
104	3692	15.4	0
104	3692	15.5	0
104	3692	15.6	0
104	3692	15.7	0
104	3692	15.8	0
104	3692	15.9	0
104	3692	16	0
104	3692	16.1	0
104	3692	16.2	0
104	3692	16.3	0
104	3692	16.4	0
104	3692	16.5	0
104	3692	16.6	0
104	3692	16.7	0
104	3692	16.8	0
104	3692	16.9	0
104	3692	17	0
104	3692	17.1	0
104	3692	17.2	0
104	3692	17.3	0
104	3692	17.4	0
104	3692	17.5	0
104	3692	17.6	0
104	3692	17.7	0
104	3692	17.8	0
104	3692	17.9	0
104	3692	18	0
104	3692	18.1	0
104	3692	18.2	0
104	3692	18.3	0
104	3692	18.4	0
104	3692	18.5	0
104	3692	18.6	0
104	3692	18.7	0
104	3692	18.8	0
104	3692	18.9	0
104	3692	19	0
104	3692	19.1	0
104	3692	19.2	0
104	3692	19.3	0
104	3692	19.4	0
104	3692	19.5	0
104	3692	19.6	0
104	3692	19.7	0
104	3692	19.8	0
104	3692	19.9	0
104	3692	20	0
104	3692	20.1	0
104	3692	20.2	0
104	3692	20.3	0
104	3692	20.4	0
104	3692	20.5	0
104	3692	20.6	0
104	3692	20.7	0
104	3692	20.8	0
104	3692	20.9	0
104	3692	21	0
104	3692	21.1	0
104	3692	21.2	0
104	3692	21.3	0
104	3692	21.4	0
104	3692	21.5	0
104	3692	21.6	0
104	3692	21.7	0
104	3692	21.8	0
104	3692	21.9	0
104	3692	22	0
104	3692	22.1	0
104	3692	22.2	0
104	3692	22.3	0
104	3692	22.4	0
104	3692	22.5	0
104	3692	22.6	0
104	3692	22.7	0
104	3692	22.8	0
104	3692	22.9	0
104	3692	23	0
104	3692	23.1	0
104	3692	23.2	0
104	3692	23.3	0
104	3692	23.4	0
104	3692	23.5	0
104	3692	23.6	0
104	3692	23.7	0
104	3692	23.8	0
104	3692	23.9	0
104	3692	24	0
104	3692	24.1	0
104	3692	24.2	0
104	3692	24.3	0
104	3692	24.4	0
104	3692	24.5	0
104	3692	24.6	0
104	3692	24.7	0
104	3692	24.8	0
104	3692	24.9	0
104	3692	25	0
104	3692	25.1	0
104	3692	25.2	0
104	3692	25.3	0
104	3692	25.4	0
104	3692	25.5	0
104	3692	25.6	0
104	3692	25.7	0
104	3692	25.8	0
104	3692	25.9	0
104	3692	26	0
104	3692	26.1	0
104	3692	26.2	0
104	3692	26.3	0
104	3692	26.4	0
104	3692	26.5	0
104	3692	26.6	0
104	3692	26.7	0
104	3692	26.8	0
104	3692	26.9	0
104	3692	27	0
104	3692	27.1	0
104	3692	27.2	0
104	3692	27.3	0
104	3692	27.4	0
104	3692	27.5	0
104	3692	27.6	0
104	3692	27.7	0
104	3692	27.8	0
104	3692	27.9	0
104	3692	28	0
104	3692	28.1	0
104	3692	28.2	0
104	3692	28.3	0
104	3692	28.4	0
104	3692	28.5	0
104	3692	28.6	0
104	3692	28.7	0
104	3692	28.8	0
104	3692	28.9	0
104	3692	29	0
104	3692	29.1	0
104	3692	29.2	0
104	3692	29.3	0
104	3692	29.4	0
104	3692	29.5	0
104	3692	29.6	0
104	3692	29.7	0
104	3692	29.8	0
104	3692	29.9	0
104	3692	30	0
104	3692	30.1	0
104	3692	30.2	0
104	3692	30.3	0
104	3692	30.4	0
104	3692	30.5	0
104	3692	30.6	0
104	3692	30.7	0
104	3692	30.8	0
104	3692	30.9	0
104	3692	31	0
104	3692	31.1	0
104	3692	31.2	0
104	3692	31.3	0
104	3692	31.4	0
104	3692	31.5	0
104	3692	31.6	0
104	3692	31.7	0
104	3692	31.8	0
104	3692	31.9	0
104	3692	32	0
104	3692	32.1	0
104	3692	32.2	0
104	3692	32.3	0
104	3692	32.4	0
104	3692	32.5	0
104	3692	32.6	0
104	3692	32.7	0
104	3692	32.8	0
104	3692	32.9	0
104	3692	33	0
104	3692	33.1	0
104	3692	33.2	0
104	3692	33.3	0
104	3692	33.4	0
104	3692	33.5	0
104	3692	33.6	0
104	3692	33.7	0
104	3692	33.8	0
104	3692	33.9	0
104	3692	34	0
104	3692	34.1	0
104	3692	34.2	0
104	3692	34.3	0
104	3692	34.4	0
104	3692	34.5	0
104	3692	34.6	0
104	3692	34.7	0
104	3692	34.8	0
104	3692	34.9	0
104	3692	35	0
104	3692	35.1	0
104	3692	35.2	0
104	3692	35.3	0
104	3692	35.4	0
104	3692	35.5	0
104	3692	35.6	0
104	3692	35.7	0
104	3692	35.8	0
104	3692	35.9	0
104	3692	36	0
104	3692	36.1	0
104	3692	36.2	0
104	3692	36.3	0
104	3692	36.4	0
104	3692	36.5	0
104	3692	36.6	0
104	3692	36.7	0
104	3692	36.8	0
104	3692	36.9	0
104	3692	37	0
104	3692	37.1	0
104	3692	37.2	0
104	3692	37.3	0
104	3692	37.4	0
104	3692	37.5	0
104	3692	37.6	0
104	3692	37.7	0
104	3692	37.8	0
104	3692	37.9	0
104	3692	38	0
104	3692	38.1	0
104	3692	38.2	0
104	3692	38.3	0
104	3692	38.4	0
104	3692	38.5	0
104	3692	38.6	0
104	3692	38.7	0
104	3692	38.8	0
104	3692	38.9	0
104	3692	39	0
104	3692	39.1	0
104	3692	39.2	0
104	3692	39.3	0
104	3692	39.4	0
104	3692	39.5	0
104	3692	39.6	0
104	3692	39.7	0
104	3692	39.8	0
104	3692	39.9	0
104	3692	40	0
104	3692	40.1	0
104	3692	40.2	0
104	3692	40.3	0
104	3692	40.4	0
104	3692	40.5	0
104	3692	40.6	0
104	3692	40.7	0
104	3692	40.8	0
104	3692	40.9	0
104	3692	41	0
104	3692	41.1	0
104	3692	41.2	0
104	3692	41.3	0
104	3692	41.4	0
104	3692	41.5	0
104	3692	41.6	0
104	3692	41.7	0
104	3692	41.8	0
104	3692	41.9	0
104	3692	42	0
104	3692	42.1	0
104	3692	42.2	0
104	3692	42.3	0
104	3692	42.4	0
104	3692	42.5	0
104	3692	42.6	0
104	3692	42.7	0
104	3692	42.8	0
104	3692	42.9	0
104	3692	43	0
104	3692	43.1	0
104	3692	43.2	0
104	3692	43.3	0
104	3692	43.4	0
104	3692	43.5	0
104	3692	43.6	0
104	3692	43.7	0
104	3692	43.8	0
104	3692	43.9	0
104	3692	44	0
104	3692	44.1	0
104	3692	44.2	0
104	3692	44.3	0
104	3692	44.4	0
104	3692	44.5	0
104	3692	44.6	0
104	3692	44.7	0
104	3692	44.8	0
104	3692	44.9	0
104	3692	45	0
104	3692	45.1	0
104	3692	45.2	0
104	3692	45.3	0
104	3692	45.4	0
104	3692	45.5	0
104	3692	45.6	0
104	3692	45.7	0
104	3692	45.8	0
104	3692	45.9	0
104	3692	46	0
104	3692	46.1	0
104	3692	46.2	0
104	3692	46.3	0
104	3692	46.4	0
104	3692	46.5	0
104	3692	46.6	0
104	3692	46.7	0
104	3692	46.8	0
104	3692	46.9	0
104	3692	47	0
104	3692	47.1	0
104	3692	47.2	0
104	3692	47.3	0
104	3692	47.4	0
104	3692	47.5	0
104	3692	47.6	0
104	3692	47.7	0
104	3692	47.8	0
104	3692	47.9	0
104	3692	48	0
104	3692	48.1	0
104	3692	48.2	0
[...]
105	3692	52.3	0
105	3692	52.4	0
105	3692	52.5	0
105	3692	52.6	0
105	3692	52.7	0
105	3692	52.8	0
105	3692	52.9	0
105	3692	53	0
105	3692	53.1	0
105	3692	53.2	0
105	3692	53.3	0
105	3692	53.4	0
105	3692	53.5	0
105	3692	53.6	0
105	3692	53.7	0
105	3692	53.8	0
105	3692	53.9	0
105	3692	54	0
105	3692	54.1	0
105	3692	54.2	0
105	3692	54.3	0
105	3692	54.4	0
105	3692	54.5	0
105	3692	54.6	0
105	3692	54.7	0
105	3692	54.8	0
105	3692	54.9	0
105	3692	55	0
105	3692	55.1	0
105	3692	55.2	0
105	3692	55.3	0
105	3692	55.4	0
105	3692	55.5	0
105	3692	55.6	0
105	3692	55.7	0
105	3692	55.8	0
105	3692	55.9	0
105	3692	56	0
105	3692	56.1	0
105	3692	56.2	0
105	3692	56.3	0
105	3692	56.4	0
105	3692	56.5	0
105	3692	56.6	0
105	3692	56.7	0
105	3692	56.8	0
105	3692	56.9	0
105	3692	57	0
105	3692	57.1	0
105	3692	57.2	0
105	3692	57.3	0
105	3692	57.4	0
105	3692	57.5	0
105	3692	57.6	0
105	3692	57.7	0
105	3692	57.8	0
105	3692	57.9	0
105	3692	58	0
105	3692	58.1	0
105	3692	58.2	0
105	3692	58.3	0
105	3692	58.4	0
105	3692	58.5	0
105	3692	58.6	0
105	3692	58.7	0
105	3692	58.8	0
105	3692	58.9	0
105	3692	59	0
105	3692	59.1	0
105	3692	59.2	0
105	3692	59.3	0
105	3692	59.4	0
105	3692	59.5	0
105	3692	59.6	0
105	3692	59.7	0
105	3692	59.8	0
105	3692	59.9	0
105	3692	60	0
106	3692	0.1	0
106	3692	0.2	0
106	3692	0.3	0
106	3692	0.4	0
106	3692	0.5	0
106	3692	0.6	0
106	3692	0.7	0
106	3692	0.8	0
106	3692	0.9	0
106	3692	1	0
106	3692	1.1	0
106	3692	1.2	0
106	3692	1.3	0
106	3692	1.4	0
106	3692	1.5	0
106	3692	1.6	0
106	3692	1.7	0
106	3692	1.8	0
106	3692	1.9	0
106	3692	2	0
106	3692	2.1	0
106	3692	2.2	0
106	3692	2.3	0
106	3692	2.4	0
106	3692	2.5	0
106	3692	2.6	0
106	3692	2.7	0
106	3692	2.8	0
106	3692	2.9	0
106	3692	3	0
106	3692	3.1	0
106	3692	3.2	0
106	3692	3.3	0
106	3692	3.4	0
106	3692	3.5	0
106	3692	3.6	0
106	3692	3.7	0
106	3692	3.8	0
106	3692	3.9	0
106	3692	4	0
106	3692	4.1	0
106	3692	4.2	0
106	3692	4.3	0
106	3692	4.4	0
106	3692	4.5	0
106	3692	4.6	0
106	3692	4.7	0
106	3692	4.8	0
106	3692	4.9	0
106	3692	5	0
106	3692	5.1	0
106	3692	5.2	0
106	3692	5.3	0
106	3692	5.4	0
106	3692	5.5	0
106	3692	5.6	0
106	3692	5.7	0
106	3692	5.8	0
106	3692	5.9	0
106	3692	6	0
106	3692	6.1	0
106	3692	6.2	0
106	3692	6.3	0
106	3692	6.4	0
106	3692	6.5	0
106	3692	6.6	0
106	3692	6.7	0
106	3692	6.8	0
106	3692	6.9	0
106	3692	7	0
106	3692	7.1	0
106	3692	7.2	0
106	3692	7.3	0
106	3692	7.4	0
106	3692	7.5	0
106	3692	7.6	0
106	3692	7.7	0
106	3692	7.8	0
106	3692	7.9	0
106	3692	8	0
106	3692	8.1	0
106	3692	8.2	0
106	3692	8.3	0
106	3692	8.4	0
106	3692	8.5	0
106	3692	8.6	0
106	3692	8.7	0
106	3692	8.8	0
106	3692	8.9	0
106	3692	9	0
106	3692	9.1	0
106	3692	9.2	0
106	3692	9.3	0
106	3692	9.4	0
106	3692	9.5	0
106	3692	9.6	0
106	3692	9.7	0
106	3692	9.8	0
106	3692	9.9	0
106	3692	10	0
106	3692	10.1	0
106	3692	10.2	0
106	3692	10.3	0
106	3692	10.4	0
106	3692	10.5	0
106	3692	10.6	0
106	3692	10.7	0
106	3692	10.8	0
106	3692	10.9	0
106	3692	11	0
106	3692	11.1	0
106	3692	11.2	0
106	3692	11.3	0
106	3692	11.4	0
106	3692	11.5	0
106	3692	11.6	0
106	3692	11.7	0
106	3692	11.8	0
106	3692	11.9	0
106	3692	12	0
106	3692	12.1	0
106	3692	12.2	0
106	3692	12.3	0
106	3692	12.4	0
106	3692	12.5	0
106	3692	12.6	0
106	3692	12.7	0
106	3692	12.8	0
106	3692	12.9	0
106	3692	13	0
106	3692	13.1	0
106	3692	13.2	0
106	3692	13.3	0
106	3692	13.4	0
106	3692	13.5	0
106	3692	13.6	0
106	3692	13.7	0
106	3692	13.8	0
106	3692	13.9	0
106	3692	14	0
106	3692	14.1	0
106	3692	14.2	0
106	3692	14.3	0
106	3692	14.4	0
106	3692	14.5	0
106	3692	14.6	0
106	3692	14.7	0
106	3692	14.8	0
106	3692	14.9	0
106	3692	15	0
106	3692	15.1	0
106	3692	15.2	0
106	3692	15.3	0
106	3692	15.4	0
106	3692	15.5	0
106	3692	15.6	0
106	3692	15.7	0
106	3692	15.8	0
106	3692	15.9	0
106	3692	16	0
106	3692	16.1	0
106	3692	16.2	0
106	3692	16.3	0
106	3692	16.4	0
106	3692	16.5	0
106	3692	16.6	0
106	3692	16.7	0
106	3692	16.8	0
106	3692	16.9	0
106	3692	17	0
106	3692	17.1	0
106	3692	17.2	0
106	3692	17.3	0
106	3692	17.4	0
106	3692	17.5	0
106	3692	17.6	0
106	3692	17.7	0
106	3692	17.8	0
106	3692	17.9	0
106	3692	18	0
106	3692	18.1	0
106	3692	18.2	0
106	3692	18.3	0
106	3692	18.4	0
106	3692	18.5	0
106	3692	18.6	0
106	3692	18.7	0
106	3692	18.8	0
106	3692	18.9	0
106	3692	19	0
106	3692	19.1	0
106	3692	19.2	0
106	3692	19.3	0
106	3692	19.4	0
106	3692	19.5	0
106	3692	19.6	0
106	3692	19.7	0
106	3692	19.8	0
106	3692	19.9	0
106	3692	20	0
106	3692	20.1	0
106	3692	20.2	0
106	3692	20.3	0
106	3692	20.4	0
106	3692	20.5	0
106	3692	20.6	0
106	3692	20.7	0
106	3692	20.8	0
106	3692	20.9	0
106	3692	21	0
106	3692	21.1	0
106	3692	21.2	0
106	3692	21.3	0
106	3692	21.4	0
106	3692	21.5	0
106	3692	21.6	0
106	3692	21.7	0
106	3692	21.8	0
106	3692	21.9	0
106	3692	22	0
106	3692	22.1	0
106	3692	22.2	0
106	3692	22.3	0
106	3692	22.4	0
106	3692	22.5	0
106	3692	22.6	0
106	3692	22.7	0
106	3692	22.8	0
106	3692	22.9	0
106	3692	23	0
106	3692	23.1	0
106	3692	23.2	0
106	3692	23.3	0
106	3692	23.4	0
106	3692	23.5	0
106	3692	23.6	0
106	3692	23.7	0
106	3692	23.8	0
106	3692	23.9	0
106	3692	24	0
106	3692	24.1	0
106	3692	24.2	0
106	3692	24.3	0
106	3692	24.4	0
106	3692	24.5	0
106	3692	24.6	0
106	3692	24.7	0
106	3692	24.8	0
106	3692	24.9	0
106	3692	25	0
106	3692	25.1	0
106	3692	25.2	0
106	3692	25.3	0
106	3692	25.4	0
106	3692	25.5	0
106	3692	25.6	0
106	3692	25.7	0
106	3692	25.8	0
106	3692	25.9	0
106	3692	26	0
106	3692	26.1	0
106	3692	26.2	0
106	3692	26.3	0
106	3692	26.4	0
106	3692	26.5	0
106	3692	26.6	0
106	3692	26.7	0
106	3692	26.8	0
106	3692	26.9	0
106	3692	27	0
106	3692	27.1	0
106	3692	27.2	0
106	3692	27.3	0
106	3692	27.4	0
106	3692	27.5	0
106	3692	27.6	0
106	3692	27.7	0
106	3692	27.8	0
106	3692	27.9	0
106	3692	28	0
106	3692	28.1	0
106	3692	28.2	0
106	3692	28.3	0
106	3692	28.4	0
106	3692	28.5	0
106	3692	28.6	0
106	3692	28.7	0
106	3692	28.8	0
106	3692	28.9	0
106	3692	29	0
106	3692	29.1	0
106	3692	29.2	0
106	3692	29.3	0
106	3692	29.4	0
106	3692	29.5	0
106	3692	29.6	0
106	3692	29.7	0
106	3692	29.8	0
106	3692	29.9	0
106	3692	30	0
106	3692	30.1	0
106	3692	30.2	0
106	3692	30.3	0
106	3692	30.4	0
106	3692	30.5	0
106	3692	30.6	0
106	3692	30.7	0
106	3692	30.8	0
106	3692	30.9	0
106	3692	31	0
106	3692	31.1	0
106	3692	31.2	0
106	3692	31.3	0
106	3692	31.4	0
106	3692	31.5	0
106	3692	31.6	0
106	3692	31.7	0
106	3692	31.8	0
106	3692	31.9	0
106	3692	32	0
106	3692	32.1	0
106	3692	32.2	0
106	3692	32.3	0
106	3692	32.4	0
106	3692	32.5	0
106	3692	32.6	0
106	3692	32.7	0
106	3692	32.8	0
106	3692	32.9	0
106	3692	33	0
106	3692	33.1	0
106	3692	33.2	0
106	3692	33.3	0
106	3692	33.4	0
106	3692	33.5	0
106	3692	33.6	0
106	3692	33.7	0
106	3692	33.8	0
106	3692	33.9	0
106	3692	34	0
106	3692	34.1	0
106	3692	34.2	0
106	3692	34.3	0
106	3692	34.4	0
106	3692	34.5	0
106	3692	34.6	0
106	3692	34.7	0
106	3692	34.8	0
106	3692	34.9	0
106	3692	35	0
106	3692	35.1	0
106	3692	35.2	0
106	3692	35.3	0
106	3692	35.4	0
106	3692	35.5	0
106	3692	35.6	0
106	3692	35.7	0
106	3692	35.8	0
106	3692	35.9	0
106	3692	36	0
106	3692	36.1	0
106	3692	36.2	0
106	3692	36.3	0
106	3692	36.4	0
106	3692	36.5	0
106	3692	36.6	0
106	3692	36.7	0
106	3692	36.8	0
106	3692	36.9	0
106	3692	37	0
106	3692	37.1	0
106	3692	37.2	0
106	3692	37.3	0
106	3692	37.4	0
106	3692	37.5	0
106	3692	37.6	0
106	3692	37.7	0
106	3692	37.8	0
106	3692	37.9	0
106	3692	38	0
106	3692	38.1	0
106	3692	38.2	0
106	3692	38.3	0
106	3692	38.4	0
106	3692	38.5	0
106	3692	38.6	0
106	3692	38.7	0
106	3692	38.8	0
106	3692	38.9	0
106	3692	39	0
106	3692	39.1	0
106	3692	39.2	0
106	3692	39.3	0
106	3692	39.4	0
106	3692	39.5	0
106	3692	39.6	0
106	3692	39.7	0
106	3692	39.8	0
106	3692	39.9	0
106	3692	40	0
106	3692	40.1	0
106	3692	40.2	0
106	3692	40.3	0
106	3692	40.4	0
106	3692	40.5	0
106	3692	40.6	0
106	3692	40.7	0
106	3692	40.8	0
106	3692	40.9	0
106	3692	41	0
106	3692	41.1	0
106	3692	41.2	0
106	3692	41.3	0
106	3692	41.4	0
106	3692	41.5	0
106	3692	41.6	0
106	3692	41.7	0
106	3692	41.8	0
106	3692	41.9	0
106	3692	42	0
106	3692	42.1	0
106	3692	42.2	0
106	3692	42.3	0
106	3692	42.4	0
106	3692	42.5	0
106	3692	42.6	0
106	3692	42.7	0
106	3692	42.8	0
106	3692	42.9	0
106	3692	43	0
106	3692	43.1	0
106	3692	43.2	0
106	3692	43.3	0
106	3692	43.4	0
106	3692	43.5	0
106	3692	43.6	0
106	3692	43.7	0
106	3692	43.8	0
106	3692	43.9	0
106	3692	44	0
106	3692	44.1	0
106	3692	44.2	0
106	3692	44.3	0
106	3692	44.4	0
106	3692	44.5	0
106	3692	44.6	0
106	3692	44.7	0
106	3692	44.8	0
106	3692	44.9	0
106	3692	45	0
106	3692	45.1	0
106	3692	45.2	0
106	3692	45.3	0
106	3692	45.4	0
106	3692	45.5	0
106	3692	45.6	0
106	3692	45.7	0
106	3692	45.8	0
106	3692	45.9	0
106	3692	46	0
106	3692	46.1	0
106	3692	46.2	0
106	3692	46.3	0
106	3692	46.4	0
106	3692	46.5	0
106	3692	46.6	0
106	3692	46.7	0
106	3692	46.8	0
106	3692	46.9	0
106	3692	47	0
106	3692	47.1	0
106	3692	47.2	0
106	3692	47.3	0
106	3692	47.4	0
106	3692	47.5	0
106	3692	47.6	0
106	3692	47.7	0
106	3692	47.8	0
106	3692	47.9	0
106	3692	48	0
106	3692	48.1	0
106	3692	48.2	0
106	3692	48.3	0
106	3692	48.4	0
106	3692	48.5	0
106	3692	48.6	0
106	3692	48.7	0
106	3692	48.8	0
106	3692	48.9	0
106	3692	49	0
106	3692	49.1	0
106	3692	49.2	0
106	3692	49.3	0
106	3692	49.4	0
106	3692	49.5	0
106	3692	49.6	0
106	3692	49.7	0
106	3692	49.8	0
106	3692	49.9	0
106	3692	50	0
106	3692	50.1	0
106	3692	50.2	0
106	3692	50.3	0
106	3692	50.4	0
106	3692	50.5	0
106	3692	50.6	0
106	3692	50.7	0
106	3692	50.8	0
106	3692	50.9	0
106	3692	51	0
106	3692	51.1	0
106	3692	51.2	0
106	3692	51.3	0
106	3692	51.4	0
106	3692	51.5	0
106	3692	51.6	0
106	3692	51.7	0
106	3692	51.8	0
106	3692	51.9	0
106	3692	52	0
106	3692	52.1	0
106	3692	52.2	0
106	3692	52.3	0
106	3692	52.4	0
106	3692	52.5	0
106	3692	52.6	0
106	3692	52.7	0
106	3692	52.8	0
106	3692	52.9	0
106	3692	53	0
106	3692	53.1	0
106	3692	53.2	0
106	3692	53.3	0
106	3692	53.4	0
106	3692	53.5	0
106	3692	53.6	0
106	3692	53.7	0
106	3692	53.8	0
106	3692	53.9	0
106	3692	54	0
106	3692	54.1	0
106	3692	54.2	0
106	3692	54.3	0
106	3692	54.4	0
106	3692	54.5	0
106	3692	54.6	0
106	3692	54.7	0
106	3692	54.8	0
106	3692	54.9	0
106	3692	55	0
106	3692	55.1	0
106	3692	55.2	0
106	3692	55.3	0
106	3692	55.4	0
106	3692	55.5	0
106	3692	55.6	0
106	3692	55.7	0
106	3692	55.8	0
106	3692	55.9	0
106	3692	56	0
106	3692	56.1	0
106	3692	56.2	0
106	3692	56.3	0
106	3692	56.4	0
106	3692	56.5	0
106	3692	56.6	0
106	3692	56.7	0
106	3692	56.8	0
106	3692	56.9	0
106	3692	57	0
106	3692	57.1	0
106	3692	57.2	0
106	3692	57.3	0
106	3692	57.4	0
106	3692	57.5	0
106	3692	57.6	0
106	3692	57.7	0
106	3692	57.8	0
106	3692	57.9	0
106	3692	58	0
106	3692	58.1	0
106	3692	58.2	0
106	3692	58.3	0
106	3692	58.4	0
106	3692	58.5	0
106	3692	58.6	0
106	3692	58.7	0
106	3692	58.8	0
106	3692	58.9	0
106	3692	59	0
106	3692	59.1	0
106	3692	59.2	0
106	3692	59.3	0
106	3692	59.4	0
106	3692	59.5	0
106	3692	59.6	0
106	3692	59.7	0
106	3692	59.8	0
106	3692	59.9	0
106	3692	60	0
107	3692	0.1	0
107	3692	0.2	0
107	3692	0.3	0
107	3692	0.4	0
107	3692	0.5	0
107	3692	0.6	0
107	3692	0.7	0
107	3692	0.8	0
107	3692	0.9	0
107	3692	1	0
107	3692	1.1	0
107	3692	1.2	0
107	3692	1.3	0
107	3692	1.4	0
107	3692	1.5	0
107	3692	1.6	0
107	3692	1.7	0
107	3692	1.8	0
107	3692	1.9	0
107	3692	2	0
107	3692	2.1	0
107	3692	2.2	0
107	3692	2.3	0
107	3692	2.4	0
107	3692	2.5	0
107	3692	2.6	0
107	3692	2.7	0
107	3692	2.8	0
107	3692	2.9	0
107	3692	3	0
107	3692	3.1	0
107	3692	3.2	0
107	3692	3.3	0
107	3692	3.4	0
107	3692	3.5	0
107	3692	3.6	0
107	3692	3.7	0
107	3692	3.8	0
107	3692	3.9	0
107	3692	4	0
107	3692	4.1	0
107	3692	4.2	0
107	3692	4.3	0
107	3692	4.4	0
107	3692	4.5	0
107	3692	4.6	0
107	3692	4.7	0
107	3692	4.8	0
107	3692	4.9	0
107	3692	5	0
107	3692	5.1	0
107	3692	5.2	0
107	3692	5.3	0
107	3692	5.4	0
107	3692	5.5	0
107	3692	5.6	0
107	3692	5.7	0
107	3692	5.8	0
107	3692	5.9	0
107	3692	6	0
107	3692	6.1	0
107	3692	6.2	0
107	3692	6.3	0
107	3692	6.4	0
107	3692	6.5	0
107	3692	6.6	0
107	3692	6.7	0
107	3692	6.8	0
107	3692	6.9	0
107	3692	7	0
107	3692	7.1	0
107	3692	7.2	0
107	3692	7.3	0
107	3692	7.4	0
107	3692	7.5	0
107	3692	7.6	0
107	3692	7.7	0
107	3692	7.8	0
107	3692	7.9	0
107	3692	8	0
107	3692	8.1	0
107	3692	8.2	0
107	3692	8.3	0
107	3692	8.4	0
107	3692	8.5	0
107	3692	8.6	0
107	3692	8.7	0
107	3692	8.8	0
107	3692	8.9	0
107	3692	9	0
107	3692	9.1	0
107	3692	9.2	0
107	3692	9.3	0
107	3692	9.4	0
107	3692	9.5	0
107	3692	9.6	0
107	3692	9.7	0
107	3692	9.8	0
107	3692	9.9	0
107	3692	10	0
107	3692	10.1	0
107	3692	10.2	0
107	3692	10.3	0
107	3692	10.4	0
107	3692	10.5	0
107	3692	10.6	0
107	3692	10.7	0
107	3692	10.8	0
107	3692	10.9	0
107	3692	11	0
107	3692	11.1	0
107	3692	11.2	0
107	3692	11.3	0
107	3692	11.4	0
107	3692	11.5	0
107	3692	11.6	0
107	3692	11.7	0
107	3692	11.8	0
107	3692	11.9	0
107	3692	12	0
107	3692	12.1	0
107	3692	12.2	0
107	3692	12.3	0
107	3692	12.4	0
107	3692	12.5	0
107	3692	12.6	0
107	3692	12.7	0
107	3692	12.8	0
107	3692	12.9	0
107	3692	13	0
107	3692	13.1	0
107	3692	13.2	0
107	3692	13.3	0
107	3692	13.4	0
107	3692	13.5	0
107	3692	13.6	0
107	3692	13.7	0
107	3692	13.8	0
107	3692	13.9	0
107	3692	14	0
107	3692	14.1	0
107	3692	14.2	0
107	3692	14.3	0
107	3692	14.4	0
107	3692	14.5	0
107	3692	14.6	0
107	3692	14.7	0
107	3692	14.8	0
107	3692	14.9	0
107	3692	15	0
107	3692	15.1	0
107	3692	15.2	0
107	3692	15.3	0
107	3692	15.4	0
107	3692	15.5	0
107	3692	15.6	0
107	3692	15.7	0
107	3692	15.8	0
107	3692	15.9	0
107	3692	16	0
107	3692	16.1	0
107	3692	16.2	0
107	3692	16.3	0
107	3692	16.4	0
107	3692	16.5	0
107	3692	16.6	0
107	3692	16.7	0
107	3692	16.8	0
107	3692	16.9	0
107	3692	17	0
107	3692	17.1	0
107	3692	17.2	0
107	3692	17.3	0
107	3692	17.4	0
107	3692	17.5	0
107	3692	17.6	0
107	3692	17.7	0
107	3692	17.8	0
107	3692	17.9	0
107	3692	18	0
107	3692	18.1	0
107	3692	18.2	0
107	3692	18.3	0
107	3692	18.4	0
107	3692	18.5	0
107	3692	18.6	0
107	3692	18.7	0
107	3692	18.8	0
107	3692	18.9	0
107	3692	19	0
107	3692	19.1	0
107	3692	19.2	0
107	3692	19.3	0
107	3692	19.4	0
107	3692	19.5	0
107	3692	19.6	0
107	3692	19.7	0
107	3692	19.8	0
107	3692	19.9	0
107	3692	20	0
107	3692	20.1	0
107	3692	20.2	0
107	3692	20.3	0
107	3692	20.4	0
107	3692	20.5	0
107	3692	20.6	0
107	3692	20.7	0
107	3692	20.8	0
107	3692	20.9	0
107	3692	21	0
107	3692	21.1	0
107	3692	21.2	0
107	3692	21.3	0
107	3692	21.4	0
107	3692	21.5	0
107	3692	21.6	0
107	3692	21.7	0
107	3692	21.8	0
107	3692	21.9	0
107	3692	22	0
107	3692	22.1	0
107	3692	22.2	0
107	3692	22.3	0
107	3692	22.4	0
107	3692	22.5	0
107	3692	22.6	0
107	3692	22.7	0
107	3692	22.8	0
107	3692	22.9	0
107	3692	23	0
107	3692	23.1	0
107	3692	23.2	0
107	3692	23.3	0
107	3692	23.4	0
107	3692	23.5	0
107	3692	23.6	0
107	3692	23.7	0
107	3692	23.8	0
107	3692	23.9	0
107	3692	24	0
107	3692	24.1	0
107	3692	24.2	0
107	3692	24.3	0
107	3692	24.4	0
107	3692	24.5	0
107	3692	24.6	0
107	3692	24.7	0
107	3692	24.8	0
107	3692	24.9	0
107	3692	25	0
107	3692	25.1	0
107	3692	25.2	0
107	3692	25.3	0
107	3692	25.4	0
107	3692	25.5	0
107	3692	25.6	0
107	3692	25.7	0
107	3692	25.8	0
107	3692	25.9	0
107	3692	26	0
107	3692	26.1	0
107	3692	26.2	0
107	3692	26.3	0
107	3692	26.4	0
107	3692	26.5	0
107	3692	26.6	0
107	3692	26.7	0
107	3692	26.8	0
107	3692	26.9	0
107	3692	27	0
107	3692	27.1	0
107	3692	27.2	0
107	3692	27.3	0
107	3692	27.4	0
107	3692	27.5	0
107	3692	27.6	0
107	3692	27.7	0
107	3692	27.8	0
107	3692	27.9	0
107	3692	28	0
107	3692	28.1	0
107	3692	28.2	0
107	3692	28.3	0
107	3692	28.4	0
107	3692	28.5	0
107	3692	28.6	0
107	3692	28.7	0
107	3692	28.8	0
107	3692	28.9	0
107	3692	29	0
107	3692	29.1	0
107	3692	29.2	0
107	3692	29.3	0
107	3692	29.4	0
107	3692	29.5	0
107	3692	29.6	0
107	3692	29.7	0
107	3692	29.8	0
107	3692	29.9	0
107	3692	30	0
107	3692	30.1	0
107	3692	30.2	0
107	3692	30.3	0
107	3692	30.4	0
107	3692	30.5	0
107	3692	30.6	0
107	3692	30.7	0
107	3692	30.8	0
107	3692	30.9	0
107	3692	31	0
107	3692	31.1	0
107	3692	31.2	0
107	3692	31.3	0
107	3692	31.4	0
107	3692	31.5	0
107	3692	31.6	0
107	3692	31.7	0
107	3692	31.8	0
107	3692	31.9	0
107	3692	32	0
107	3692	32.1	0
107	3692	32.2	0
107	3692	32.3	0
107	3692	32.4	0
107	3692	32.5	0
107	3692	32.6	0
107	3692	32.7	0
107	3692	32.8	0
107	3692	32.9	0
107	3692	33	0
107	3692	33.1	0
107	3692	33.2	0
107	3692	33.3	0
107	3692	33.4	0
107	3692	33.5	0
107	3692	33.6	0
107	3692	33.7	0
107	3692	33.8	0
107	3692	33.9	0
107	3692	34	0
107	3692	34.1	0
107	3692	34.2	0
107	3692	34.3	0
107	3692	34.4	0
107	3692	34.5	0
107	3692	34.6	0
107	3692	34.7	0
107	3692	34.8	0
107	3692	34.9	0
107	3692	35	0
107	3692	35.1	0
107	3692	35.2	0
107	3692	35.3	0
107	3692	35.4	0
107	3692	35.5	0
107	3692	35.6	0
107	3692	35.7	0
107	3692	35.8	0
107	3692	35.9	0
107	3692	36	0
107	3692	36.1	0
107	3692	36.2	0
107	3692	36.3	0
107	3692	36.4	0
107	3692	36.5	0
107	3692	36.6	0
107	3692	36.7	0
107	3692	36.8	0
107	3692	36.9	0
107	3692	37	0
107	3692	37.1	0
107	3692	37.2	0
107	3692	37.3	0
107	3692	37.4	0
107	3692	37.5	0
107	3692	37.6	0
107	3692	37.7	0
107	3692	37.8	0
107	3692	37.9	0
107	3692	38	0
107	3692	38.1	0
107	3692	38.2	0
107	3692	38.3	0
107	3692	38.4	0
107	3692	38.5	0
107	3692	38.6	0
107	3692	38.7	0
107	3692	38.8	0
107	3692	38.9	0
107	3692	39	0
107	3692	39.1	0
107	3692	39.2	0
107	3692	39.3	0
107	3692	39.4	0
107	3692	39.5	0
107	3692	39.6	0
107	3692	39.7	0
107	3692	39.8	0
107	3692	39.9	0
107	3692	40	0
107	3692	40.1	0
107	3692	40.2	0
107	3692	40.3	0
107	3692	40.4	0
107	3692	40.5	0
107	3692	40.6	0
107	3692	40.7	0
107	3692	40.8	0
107	3692	40.9	0
107	3692	41	0
107	3692	41.1	0
107	3692	41.2	0
107	3692	41.3	0
107	3692	41.4	0
107	3692	41.5	0
107	3692	41.6	0
107	3692	41.7	0
107	3692	41.8	0
107	3692	41.9	0
107	3692	42	0
107	3692	42.1	0
107	3692	42.2	0
107	3692	42.3	0
107	3692	42.4	0
107	3692	42.5	0
107	3692	42.6	0
107	3692	42.7	0
107	3692	42.8	0
107	3692	42.9	0
107	3692	43	0
107	3692	43.1	0
107	3692	43.2	0
107	3692	43.3	0
107	3692	43.4	0
107	3692	43.5	0
107	3692	43.6	0
107	3692	43.7	0
107	3692	43.8	0
107	3692	43.9	0
107	3692	44	0
107	3692	44.1	0
107	3692	44.2	0
107	3692	44.3	0
107	3692	44.4	0
107	3692	44.5	0
107	3692	44.6	0
107	3692	44.7	0
107	3692	44.8	0
107	3692	44.9	0
107	3692	45	0
107	3692	45.1	0
107	3692	45.2	0
107	3692	45.3	0
107	3692	45.4	0
107	3692	45.5	0
107	3692	45.6	0
107	3692	45.7	0
107	3692	45.8	0
107	3692	45.9	0
107	3692	46	0
107	3692	46.1	0
107	3692	46.2	0
107	3692	46.3	0
107	3692	46.4	0
107	3692	46.5	0
107	3692	46.6	0
107	3692	46.7	0
107	3692	46.8	0
107	3692	46.9	0
107	3692	47	0
107	3692	47.1	0
107	3692	47.2	0
107	3692	47.3	0
107	3692	47.4	0
107	3692	47.5	0
107	3692	47.6	0
107	3692	47.7	0
107	3692	47.8	0
107	3692	47.9	0
107	3692	48	0
107	3692	48.1	0
107	3692	48.2	0
107	3692	48.3	0
107	3692	48.4	0
107	3692	48.5	0
107	3692	48.6	0
107	3692	48.7	0
107	3692	48.8	0
107	3692	48.9	0
107	3692	49	0
107	3692	49.1	0
107	3692	49.2	0
107	3692	49.3	0
107	3692	49.4	0
107	3692	49.5	0
107	3692	49.6	0
107	3692	49.7	0
107	3692	49.8	0
107	3692	49.9	0
107	3692	50	0
107	3692	50.1	0
107	3692	50.2	0
107	3692	50.3	0
107	3692	50.4	0
107	3692	50.5	0
107	3692	50.6	0
107	3692	50.7	0
107	3692	50.8	0
107	3692	50.9	0
107	3692	51	0
107	3692	51.1	0
107	3692	51.2	0
107	3692	51.3	0
107	3692	51.4	0
107	3692	51.5	0
107	3692	51.6	0
107	3692	51.7	0
107	3692	51.8	0
107	3692	51.9	0
107	3692	52	0
107	3692	52.1	0
107	3692	52.2	0
107	3692	52.3	0
107	3692	52.4	0
107	3692	52.5	0
107	3692	52.6	0
107	3692	52.7	0
107	3692	52.8	0
107	3692	52.9	0
107	3692	53	0
107	3692	53.1	0
107	3692	53.2	0
107	3692	53.3	0
107	3692	53.4	0
107	3692	53.5	0
107	3692	53.6	0
107	3692	53.7	0
107	3692	53.8	0
107	3692	53.9	0
107	3692	54	0
107	3692	54.1	0
107	3692	54.2	0
107	3692	54.3	0
107	3692	54.4	0
107	3692	54.5	0
107	3692	54.6	0
107	3692	54.7	0
107	3692	54.8	0
107	3692	54.9	0
107	3692	55	0
107	3692	55.1	0
107	3692	55.2	0
107	3692	55.3	0
107	3692	55.4	0
107	3692	55.5	0
107	3692	55.6	0
107	3692	55.7	0
107	3692	55.8	0
107	3692	55.9	0
107	3692	56	0
107	3692	56.1	0
107	3692	56.2	0
107	3692	56.3	0
107	3692	56.4	0
107	3692	56.5	0
107	3692	56.6	0
107	3692	56.7	0
107	3692	56.8	0
107	3692	56.9	0
107	3692	57	0
107	3692	57.1	0
107	3692	57.2	0
107	3692	57.3	0
107	3692	57.4	0
107	3692	57.5	0
107	3692	57.6	0
107	3692	57.7	0
107	3692	57.8	0
107	3692	57.9	0
107	3692	58	0
107	3692	58.1	0
107	3692	58.2	0
107	3692	58.3	0
107	3692	58.4	0
107	3692	58.5	0
107	3692	58.6	0
107	3692	58.7	0
107	3692	58.8	0
107	3692	58.9	0
107	3692	59	0
107	3692	59.1	0
107	3692	59.2	0
107	3692	59.3	0
107	3692	59.4	0
107	3692	59.5	0
107	3692	59.6	0
107	3692	59.7	0
107	3692	59.8	0
107	3692	59.9	0
107	3692	60	0

