version 2
run General-0-20260106-00:45:50-1194375
attr configname General
attr datetime 20260106-00:45:50
attr experiment General
attr inifile omnetpp.ini
attr iterationvars ""
attr iterationvarsf ""
attr measurement ""
attr network IntersectionScenario
attr processid 1194375
attr repetition 0
attr replication #0
attr resultdir results
attr runnumber 0
attr seedset 0
param *.node[*].numApps 1
param *.node[*].app[0].typename "\"benchmark.udp.HelloUdpApplication\""
param *.node[*].app[0].interface "\"wlan0\""
param *.node[*].app[0].destPort 9001
param *.node[*].app[0].localPort 9001
param *.node[*].app[0].destAddresses "\"255.255.255.255\""
param *.node[*].wlan[0].opMode "\"p\""
param *.node[*].wlan[0].radio.typename "\"Ieee80211DimensionalRadio\""
param *.node[*].wlan[0].radio.bandName "\"5.9 GHz\""
param *.node[*].wlan[0].radio.channelNumber 3
param *.node[*].wlan[0].radio.bandwidth "10 MHz"
param *.node[*].wlan[0].radio.transmitter.power 20mW
param *.node[*].wlan[0].radio.receiver.sensitivity 3pW
param *.node[*].wlan[0].radio.receiver.energyDetection 3pW
param *.node[*].ipv4.configurator.typename "\"HostAutoConfigurator\""
param *.node[*].ipv4.configurator.interfaces "\"wlan0\""
param *.node[*].ipv4.configurator.mcastGroups "\"224.0.0.1\""
param *.node[*].mobility.typename "\"VeinsInetMobility\""
param *.manager.updateInterval 0.1s
param *.manager.host "\"localhost\""
param *.manager.port 9999
param *.manager.autoShutdown true
param *.manager.launchConfig "xmldoc(\"intersection.launchd.xml\")"
param *.manager.moduleType "\"benchmark.veins_inet.VeinsInetCar\""
param *.manager.autoShutdown true
param *.physicalEnvironment.config "xmldoc(\"../veins_inet/obstacles.xml\")"
param *.radioMedium.obstacleLoss.typename "\"IdealObstacleLoss\""

vector 0 IntersectionScenario.node[0].wlan[0].radio radioMode:vector ETV
attr interpolationmode sample-hold
attr source radioModeChanged
attr title "Radio mode, vector"
vector 1 IntersectionScenario.node[0].wlan[0].radio radioChannel:vector ETV
attr interpolationmode sample-hold
attr source radioChannelChanged
attr title "Radio channel, vector"
vector 2 IntersectionScenario.node[0].wlan[0].radio receptionState:vector ETV
attr interpolationmode sample-hold
attr source receptionStateChanged
attr title "Radio reception state, vector"
vector 3 IntersectionScenario.node[0].wlan[0].mac.dcf.recoveryProcedure contentionWindowChanged:vector ETV
attr interpolationmode sample-hold
attr title "contention window, vector"
vector 4 IntersectionScenario.node[1].wlan[0].radio radioMode:vector ETV
attr interpolationmode sample-hold
attr source radioModeChanged
attr title "Radio mode, vector"
vector 5 IntersectionScenario.node[1].wlan[0].radio radioChannel:vector ETV
attr interpolationmode sample-hold
attr source radioChannelChanged
attr title "Radio channel, vector"
vector 6 IntersectionScenario.node[1].wlan[0].radio receptionState:vector ETV
attr interpolationmode sample-hold
attr source receptionStateChanged
attr title "Radio reception state, vector"
vector 7 IntersectionScenario.node[1].wlan[0].mac.dcf.recoveryProcedure contentionWindowChanged:vector ETV
attr interpolationmode sample-hold
attr title "contention window, vector"
vector 8 IntersectionScenario.node[2].wlan[0].radio radioMode:vector ETV
attr interpolationmode sample-hold
attr source radioModeChanged
attr title "Radio mode, vector"
vector 9 IntersectionScenario.node[2].wlan[0].radio radioChannel:vector ETV
attr interpolationmode sample-hold
attr source radioChannelChanged
attr title "Radio channel, vector"
vector 10 IntersectionScenario.node[2].wlan[0].radio receptionState:vector ETV
attr interpolationmode sample-hold
attr source receptionStateChanged
attr title "Radio reception state, vector"
vector 11 IntersectionScenario.node[2].wlan[0].mac.dcf.recoveryProcedure contentionWindowChanged:vector ETV
attr interpolationmode sample-hold
attr title "contention window, vector"
vector 12 IntersectionScenario.node[3].wlan[0].radio radioMode:vector ETV
attr interpolationmode sample-hold
attr source radioModeChanged
attr title "Radio mode, vector"
vector 13 IntersectionScenario.node[3].wlan[0].radio radioChannel:vector ETV
attr interpolationmode sample-hold
attr source radioChannelChanged
attr title "Radio channel, vector"
vector 14 IntersectionScenario.node[3].wlan[0].radio receptionState:vector ETV
attr interpolationmode sample-hold
attr source receptionStateChanged
attr title "Radio reception state, vector"
vector 15 IntersectionScenario.node[3].wlan[0].mac.dcf.recoveryProcedure contentionWindowChanged:vector ETV
attr interpolationmode sample-hold
attr title "contention window, vector"
vector 16 IntersectionScenario.node[0].app[0] packetSent:vector(packetBytes) ETV
attr interpolationmode none
attr source packetSent
attr title "packets sent, vector(packetBytes)"
vector 17 IntersectionScenario.node[0].udp packetSent:vector(packetBytes) ETV
attr interpolationmode none
attr source packetSent
attr title "packets sent, vector(packetBytes)"
vector 18 IntersectionScenario.node[0].lo[0].lo rcvdPkFromHl:vector(packetBytes) ETV
attr interpolationmode none
attr source packetReceivedFromUpper
attr title "packets received from higher layer, vector(packetBytes)"
vector 19 IntersectionScenario.node[0].lo[0].lo passedUpPk:vector(packetBytes) ETV
attr interpolationmode none
attr source packetSentToUpper
attr title "packets passed to higher layer, vector(packetBytes)"
vector 20 IntersectionScenario.node[0].wlan[0].mac packetReceivedFromUpper:vector(packetBytes) ETV
attr interpolationmode none
attr title "packets received from upper layer, vector(packetBytes)"
vector 21 IntersectionScenario.node[0].wlan[0].mac.dcf.channelAccess.pendingQueue packetPushed:vector(packetBytes) ETV
attr interpolationmode none
attr title "packet pushed, vector(packetBytes)"
vector 22 IntersectionScenario.node[0].wlan[0].mac.dcf.channelAccess.pendingQueue queueLength:vector ETV
attr interpolationmode sample-hold
attr source "count(packetPushed) - count(packetPopped) - count(packetRemoved) - count(packetDropped)"
attr title "queue length, vector"
vector 23 IntersectionScenario.node[0].wlan[0].mac.dcf.channelAccess.contention backoffPeriodGenerated:vector ETV
attr interpolationmode none
attr title "backoff periods, vector"
vector 24 IntersectionScenario.node[0].wlan[0].mac.dcf.channelAccess.contention backoffActive:vector ETV
attr interpolationmode sample-hold
attr source count(backoffStarted)-count(backoffStopped)
attr title "backoff active, vector"
vector 25 IntersectionScenario.node[0].udp packetReceived:vector(packetBytes) ETV
attr interpolationmode none
attr source packetReceived
attr title "packets received, vector(packetBytes)"
vector 26 IntersectionScenario.node[0].udp passedUpPk:vector(count) ETV
attr interpolationmode none
attr source packetSentToUpper
attr title "packets passed up, vector(count)"
vector 27 IntersectionScenario.node[0].app[0] packetReceived:vector(packetBytes) ETV
attr interpolationmode none
attr source packetReceived
attr title "packets received, vector(packetBytes)"
vector 28 IntersectionScenario.node[0].app[0] throughput:vector ETV
attr source throughput(packetReceived)
attr title "throughput, vector"
attr unit bps
vector 29 IntersectionScenario.node[0].wlan[0].mac.dcf.channelAccess.pendingQueue packetPopped:vector(packetBytes) ETV
attr interpolationmode none
attr title "packet popped, vector(packetBytes)"
vector 30 IntersectionScenario.node[0].wlan[0].mac.dcf.channelAccess.pendingQueue queueingTime:vector ETV
attr interpolationmode none
attr source queueingTime(packetPopped)
attr title "queueing times, vector"
attr unit s
vector 31 IntersectionScenario.node[0].wlan[0].mac.dcf.channelAccess.inProgressFrames queueLength:vector ETV
attr interpolationmode sample-hold
attr source "count(packetEnqueued) - count(packetDequeued)"
attr title "queue length, vector"
vector 32 IntersectionScenario.node[0].wlan[0].mac.dcf datarateSelected:vector ETV
attr interpolationmode none
attr title "datarates selected, vector"
vector 33 IntersectionScenario.node[0].wlan[0].mac packetSentToLower:vector(packetBytes) ETV
attr interpolationmode none
attr title "packets sent to lower layer, vector(packetBytes)"
vector 34 IntersectionScenario.node[0].wlan[0].mac.dcf frameSequenceActive:vector ETV
attr interpolationmode sample-hold
attr source count(frameSequenceStarted)-count(frameSequenceFinished)
attr title "frame sequence active, vector"
vector 35 IntersectionScenario.node[0].wlan[0].radio transmissionState:vector ETV
attr interpolationmode sample-hold
attr source transmissionStateChanged
attr title "Radio transmission state, vector"
vector 36 IntersectionScenario.node[0].wlan[0].mac.dcf packetSentToPeer:vector(packetBytes) ETV
attr interpolationmode none
attr title "packets sent, vector(packetBytes)"
vector 37 IntersectionScenario.node[0].wlan[0].mac.dcf packetSentToPeerMulticast:vector(packetBytes) ETV
attr interpolationmode none
attr source ieee80211Multicast(packetSentToPeer)
attr title "packets sent: multicast, vector(packetBytes)"
vector 38 IntersectionScenario.node[0].wlan[0].mac.dcf packetSentToPeerWithoutRetry:vector(packetBytes) ETV
attr interpolationmode none
attr source ieee80211NotRetry(packetSentToPeer)
attr title "packets sent: without retry, vector(packetBytes)"
vector 39 IntersectionScenario.node[0].wlan[0].mac.dcf.channelAccess.inProgressFrames queueingTime:vector ETV
attr interpolationmode none
attr source queueingTime(packetDequeued)
attr title "queueing times, vector"
vector 40 IntersectionScenario.node[1].app[0] packetSent:vector(packetBytes) ETV
attr interpolationmode none
attr source packetSent
attr title "packets sent, vector(packetBytes)"
vector 41 IntersectionScenario.node[1].udp packetSent:vector(packetBytes) ETV
attr interpolationmode none
attr source packetSent
attr title "packets sent, vector(packetBytes)"
vector 42 IntersectionScenario.node[1].lo[0].lo rcvdPkFromHl:vector(packetBytes) ETV
attr interpolationmode none
attr source packetReceivedFromUpper
attr title "packets received from higher layer, vector(packetBytes)"
vector 43 IntersectionScenario.node[1].lo[0].lo passedUpPk:vector(packetBytes) ETV
attr interpolationmode none
attr source packetSentToUpper
attr title "packets passed to higher layer, vector(packetBytes)"
vector 44 IntersectionScenario.node[1].wlan[0].mac packetReceivedFromUpper:vector(packetBytes) ETV
attr interpolationmode none
attr title "packets received from upper layer, vector(packetBytes)"
vector 45 IntersectionScenario.node[1].wlan[0].mac.dcf.channelAccess.pendingQueue packetPushed:vector(packetBytes) ETV
attr interpolationmode none
attr title "packet pushed, vector(packetBytes)"
vector 46 IntersectionScenario.node[1].wlan[0].mac.dcf.channelAccess.pendingQueue queueLength:vector ETV
attr interpolationmode sample-hold
attr source "count(packetPushed) - count(packetPopped) - count(packetRemoved) - count(packetDropped)"
attr title "queue length, vector"
vector 47 IntersectionScenario.node[1].wlan[0].mac.dcf.channelAccess.contention backoffPeriodGenerated:vector ETV
attr interpolationmode none
attr title "backoff periods, vector"
vector 48 IntersectionScenario.node[1].wlan[0].mac.dcf.channelAccess.contention backoffActive:vector ETV
attr interpolationmode sample-hold
attr source count(backoffStarted)-count(backoffStopped)
attr title "backoff active, vector"
vector 49 IntersectionScenario.node[1].udp packetReceived:vector(packetBytes) ETV
attr interpolationmode none
attr source packetReceived
attr title "packets received, vector(packetBytes)"
vector 50 IntersectionScenario.node[1].udp passedUpPk:vector(count) ETV
attr interpolationmode none
attr source packetSentToUpper
attr title "packets passed up, vector(count)"
vector 51 IntersectionScenario.node[1].app[0] packetReceived:vector(packetBytes) ETV
attr interpolationmode none
attr source packetReceived
attr title "packets received, vector(packetBytes)"
vector 52 IntersectionScenario.node[1].app[0] throughput:vector ETV
attr source throughput(packetReceived)
attr title "throughput, vector"
attr unit bps
vector 53 IntersectionScenario.node[1].wlan[0].mac.dcf.channelAccess.pendingQueue packetPopped:vector(packetBytes) ETV
attr interpolationmode none
attr title "packet popped, vector(packetBytes)"
vector 54 IntersectionScenario.node[1].wlan[0].mac.dcf.channelAccess.pendingQueue queueingTime:vector ETV
attr interpolationmode none
attr source queueingTime(packetPopped)
attr title "queueing times, vector"
attr unit s
vector 55 IntersectionScenario.node[1].wlan[0].mac.dcf.channelAccess.inProgressFrames queueLength:vector ETV
attr interpolationmode sample-hold
attr source "count(packetEnqueued) - count(packetDequeued)"
attr title "queue length, vector"
vector 56 IntersectionScenario.node[1].wlan[0].mac.dcf datarateSelected:vector ETV
attr interpolationmode none
attr title "datarates selected, vector"
vector 57 IntersectionScenario.node[1].wlan[0].mac packetSentToLower:vector(packetBytes) ETV
attr interpolationmode none
attr title "packets sent to lower layer, vector(packetBytes)"
vector 58 IntersectionScenario.node[1].wlan[0].mac.dcf frameSequenceActive:vector ETV
attr interpolationmode sample-hold
attr source count(frameSequenceStarted)-count(frameSequenceFinished)
attr title "frame sequence active, vector"
vector 59 IntersectionScenario.node[1].wlan[0].radio transmissionState:vector ETV
attr interpolationmode sample-hold
attr source transmissionStateChanged
attr title "Radio transmission state, vector"
vector 60 IntersectionScenario.node[1].wlan[0].mac.dcf packetSentToPeer:vector(packetBytes) ETV
attr interpolationmode none
attr title "packets sent, vector(packetBytes)"
vector 61 IntersectionScenario.node[1].wlan[0].mac.dcf packetSentToPeerMulticast:vector(packetBytes) ETV
attr interpolationmode none
attr source ieee80211Multicast(packetSentToPeer)
attr title "packets sent: multicast, vector(packetBytes)"
vector 62 IntersectionScenario.node[1].wlan[0].mac.dcf packetSentToPeerWithoutRetry:vector(packetBytes) ETV
attr interpolationmode none
attr source ieee80211NotRetry(packetSentToPeer)
attr title "packets sent: without retry, vector(packetBytes)"
vector 63 IntersectionScenario.node[1].wlan[0].mac.dcf.channelAccess.inProgressFrames queueingTime:vector ETV
attr interpolationmode none
attr source queueingTime(packetDequeued)
attr title "queueing times, vector"
vector 64 IntersectionScenario.node[2].app[0] packetSent:vector(packetBytes) ETV
attr interpolationmode none
attr source packetSent
attr title "packets sent, vector(packetBytes)"
vector 65 IntersectionScenario.node[2].udp packetSent:vector(packetBytes) ETV
attr interpolationmode none
attr source packetSent
attr title "packets sent, vector(packetBytes)"
vector 66 IntersectionScenario.node[2].lo[0].lo rcvdPkFromHl:vector(packetBytes) ETV
attr interpolationmode none
attr source packetReceivedFromUpper
attr title "packets received from higher layer, vector(packetBytes)"
vector 67 IntersectionScenario.node[2].lo[0].lo passedUpPk:vector(packetBytes) ETV
attr interpolationmode none
attr source packetSentToUpper
attr title "packets passed to higher layer, vector(packetBytes)"
vector 68 IntersectionScenario.node[2].wlan[0].mac packetReceivedFromUpper:vector(packetBytes) ETV
attr interpolationmode none
attr title "packets received from upper layer, vector(packetBytes)"
vector 69 IntersectionScenario.node[2].wlan[0].mac.dcf.channelAccess.pendingQueue packetPushed:vector(packetBytes) ETV
attr interpolationmode none
attr title "packet pushed, vector(packetBytes)"
vector 70 IntersectionScenario.node[2].wlan[0].mac.dcf.channelAccess.pendingQueue queueLength:vector ETV
attr interpolationmode sample-hold
attr source "count(packetPushed) - count(packetPopped) - count(packetRemoved) - count(packetDropped)"
attr title "queue length, vector"
vector 71 IntersectionScenario.node[2].wlan[0].mac.dcf.channelAccess.contention backoffPeriodGenerated:vector ETV
attr interpolationmode none
attr title "backoff periods, vector"
vector 72 IntersectionScenario.node[2].wlan[0].mac.dcf.channelAccess.contention backoffActive:vector ETV
attr interpolationmode sample-hold
attr source count(backoffStarted)-count(backoffStopped)
attr title "backoff active, vector"
vector 73 IntersectionScenario.node[2].udp packetReceived:vector(packetBytes) ETV
attr interpolationmode none
attr source packetReceived
attr title "packets received, vector(packetBytes)"
vector 74 IntersectionScenario.node[2].udp passedUpPk:vector(count) ETV
attr interpolationmode none
attr source packetSentToUpper
attr title "packets passed up, vector(count)"
vector 75 IntersectionScenario.node[2].app[0] packetReceived:vector(packetBytes) ETV
attr interpolationmode none
attr source packetReceived
attr title "packets received, vector(packetBytes)"
vector 76 IntersectionScenario.node[2].app[0] throughput:vector ETV
attr source throughput(packetReceived)
attr title "throughput, vector"
attr unit bps
vector 77 IntersectionScenario.node[2].wlan[0].mac.dcf.channelAccess.pendingQueue packetPopped:vector(packetBytes) ETV
attr interpolationmode none
attr title "packet popped, vector(packetBytes)"
vector 78 IntersectionScenario.node[2].wlan[0].mac.dcf.channelAccess.pendingQueue queueingTime:vector ETV
attr interpolationmode none
attr source queueingTime(packetPopped)
attr title "queueing times, vector"
attr unit s
vector 79 IntersectionScenario.node[2].wlan[0].mac.dcf.channelAccess.inProgressFrames queueLength:vector ETV
attr interpolationmode sample-hold
attr source "count(packetEnqueued) - count(packetDequeued)"
attr title "queue length, vector"
vector 80 IntersectionScenario.node[2].wlan[0].mac.dcf datarateSelected:vector ETV
attr interpolationmode none
attr title "datarates selected, vector"
vector 81 IntersectionScenario.node[2].wlan[0].mac packetSentToLower:vector(packetBytes) ETV
attr interpolationmode none
attr title "packets sent to lower layer, vector(packetBytes)"
vector 82 IntersectionScenario.node[2].wlan[0].mac.dcf frameSequenceActive:vector ETV
attr interpolationmode sample-hold
attr source count(frameSequenceStarted)-count(frameSequenceFinished)
attr title "frame sequence active, vector"
vector 83 IntersectionScenario.node[2].wlan[0].radio transmissionState:vector ETV
attr interpolationmode sample-hold
attr source transmissionStateChanged
attr title "Radio transmission state, vector"
vector 84 IntersectionScenario.node[2].wlan[0].mac.dcf packetSentToPeer:vector(packetBytes) ETV
attr interpolationmode none
attr title "packets sent, vector(packetBytes)"
vector 85 IntersectionScenario.node[2].wlan[0].mac.dcf packetSentToPeerMulticast:vector(packetBytes) ETV
attr interpolationmode none
attr source ieee80211Multicast(packetSentToPeer)
attr title "packets sent: multicast, vector(packetBytes)"
vector 86 IntersectionScenario.node[2].wlan[0].mac.dcf packetSentToPeerWithoutRetry:vector(packetBytes) ETV
attr interpolationmode none
attr source ieee80211NotRetry(packetSentToPeer)
attr title "packets sent: without retry, vector(packetBytes)"
vector 87 IntersectionScenario.node[2].wlan[0].mac.dcf.channelAccess.inProgressFrames queueingTime:vector ETV
attr interpolationmode none
attr source queueingTime(packetDequeued)
attr title "queueing times, vector"
vector 88 IntersectionScenario.node[3].app[0] packetSent:vector(packetBytes) ETV
attr interpolationmode none
attr source packetSent
attr title "packets sent, vector(packetBytes)"
vector 89 IntersectionScenario.node[3].udp packetSent:vector(packetBytes) ETV
attr interpolationmode none
attr source packetSent
attr title "packets sent, vector(packetBytes)"
vector 90 IntersectionScenario.node[3].lo[0].lo rcvdPkFromHl:vector(packetBytes) ETV
attr interpolationmode none
attr source packetReceivedFromUpper
attr title "packets received from higher layer, vector(packetBytes)"
vector 91 IntersectionScenario.node[3].lo[0].lo passedUpPk:vector(packetBytes) ETV
attr interpolationmode none
attr source packetSentToUpper
attr title "packets passed to higher layer, vector(packetBytes)"
vector 92 IntersectionScenario.node[3].wlan[0].mac packetReceivedFromUpper:vector(packetBytes) ETV
attr interpolationmode none
attr title "packets received from upper layer, vector(packetBytes)"
vector 93 IntersectionScenario.node[3].wlan[0].mac.dcf.channelAccess.pendingQueue packetPushed:vector(packetBytes) ETV
attr interpolationmode none
attr title "packet pushed, vector(packetBytes)"
vector 94 IntersectionScenario.node[3].wlan[0].mac.dcf.channelAccess.pendingQueue queueLength:vector ETV
attr interpolationmode sample-hold
attr source "count(packetPushed) - count(packetPopped) - count(packetRemoved) - count(packetDropped)"
attr title "queue length, vector"
vector 95 IntersectionScenario.node[3].wlan[0].mac.dcf.channelAccess.contention backoffPeriodGenerated:vector ETV
attr interpolationmode none
attr title "backoff periods, vector"
vector 96 IntersectionScenario.node[3].wlan[0].mac.dcf.channelAccess.contention backoffActive:vector ETV
attr interpolationmode sample-hold
attr source count(backoffStarted)-count(backoffStopped)
attr title "backoff active, vector"
vector 97 IntersectionScenario.node[3].udp packetReceived:vector(packetBytes) ETV
attr interpolationmode none
attr source packetReceived
attr title "packets received, vector(packetBytes)"
vector 98 IntersectionScenario.node[3].udp passedUpPk:vector(count) ETV
attr interpolationmode none
attr source packetSentToUpper
attr title "packets passed up, vector(count)"
vector 99 IntersectionScenario.node[3].app[0] packetReceived:vector(packetBytes) ETV
attr interpolationmode none
attr source packetReceived
attr title "packets received, vector(packetBytes)"
vector 100 IntersectionScenario.node[3].app[0] throughput:vector ETV
attr source throughput(packetReceived)
attr title "throughput, vector"
attr unit bps
vector 101 IntersectionScenario.node[3].wlan[0].mac.dcf.channelAccess.pendingQueue packetPopped:vector(packetBytes) ETV
attr interpolationmode none
attr title "packet popped, vector(packetBytes)"
vector 102 IntersectionScenario.node[3].wlan[0].mac.dcf.channelAccess.pendingQueue queueingTime:vector ETV
attr interpolationmode none
attr source queueingTime(packetPopped)
attr title "queueing times, vector"
attr unit s
vector 103 IntersectionScenario.node[3].wlan[0].mac.dcf.channelAccess.inProgressFrames queueLength:vector ETV
attr interpolationmode sample-hold
attr source "count(packetEnqueued) - count(packetDequeued)"
attr title "queue length, vector"
vector 104 IntersectionScenario.node[3].wlan[0].mac.dcf datarateSelected:vector ETV
attr interpolationmode none
attr title "datarates selected, vector"
vector 105 IntersectionScenario.node[3].wlan[0].mac packetSentToLower:vector(packetBytes) ETV
attr interpolationmode none
attr title "packets sent to lower layer, vector(packetBytes)"
vector 106 IntersectionScenario.node[3].wlan[0].mac.dcf frameSequenceActive:vector ETV
attr interpolationmode sample-hold
attr source count(frameSequenceStarted)-count(frameSequenceFinished)
attr title "frame sequence active, vector"
vector 107 IntersectionScenario.node[3].wlan[0].radio transmissionState:vector ETV
attr interpolationmode sample-hold
attr source transmissionStateChanged
attr title "Radio transmission state, vector"
vector 108 IntersectionScenario.node[3].wlan[0].mac.dcf packetSentToPeer:vector(packetBytes) ETV
attr interpolationmode none
attr title "packets sent, vector(packetBytes)"
vector 109 IntersectionScenario.node[3].wlan[0].mac.dcf packetSentToPeerMulticast:vector(packetBytes) ETV
attr interpolationmode none
attr source ieee80211Multicast(packetSentToPeer)
attr title "packets sent: multicast, vector(packetBytes)"
vector 110 IntersectionScenario.node[3].wlan[0].mac.dcf packetSentToPeerWithoutRetry:vector(packetBytes) ETV
attr interpolationmode none
attr source ieee80211NotRetry(packetSentToPeer)
attr title "packets sent: without retry, vector(packetBytes)"
vector 111 IntersectionScenario.node[3].wlan[0].mac.dcf.channelAccess.inProgressFrames queueingTime:vector ETV
attr interpolationmode none
attr source queueingTime(packetDequeued)
attr title "queueing times, vector"
vector 112 IntersectionScenario.node[3].wlan[0].mac packetReceivedFromLower:vector(packetBytes) ETV
attr interpolationmode none
attr title "packets received from lower layer, vector(packetBytes)"
vector 113 IntersectionScenario.node[3].wlan[0].mac.dcf packetReceivedFromPeer:vector(packetBytes) ETV
attr interpolationmode none
attr title "packets received, vector(packetBytes)"
vector 114 IntersectionScenario.node[3].wlan[0].mac.dcf packetReceivedFromPeerMulticast:vector(packetBytes) ETV
attr interpolationmode none
attr source ieee80211Multicast(packetReceivedFromPeer)
attr title "packets received: multicast, vector(packetBytes)"
vector 115 IntersectionScenario.node[3].wlan[0].mac.dcf packetReceivedFromPeerWithoutRetry:vector(packetBytes) ETV
attr interpolationmode none
attr source ieee80211NotRetry(packetReceivedFromPeer)
attr title "packets received: without retry, vector(packetBytes)"
vector 116 IntersectionScenario.node[3].wlan[0].mac packetSentToUpper:vector(packetBytes) ETV
attr interpolationmode none
attr title "packets sent to upper layer, vector(packetBytes)"
vector 117 IntersectionScenario.node[0].wlan[0].mac packetReceivedFromLower:vector(packetBytes) ETV
attr interpolationmode none
attr title "packets received from lower layer, vector(packetBytes)"
vector 118 IntersectionScenario.node[0].wlan[0].mac.dcf packetReceivedFromPeer:vector(packetBytes) ETV
attr interpolationmode none
attr title "packets received, vector(packetBytes)"
vector 119 IntersectionScenario.node[0].wlan[0].mac.dcf packetReceivedFromPeerMulticast:vector(packetBytes) ETV
attr interpolationmode none
attr source ieee80211Multicast(packetReceivedFromPeer)
attr title "packets received: multicast, vector(packetBytes)"
vector 120 IntersectionScenario.node[0].wlan[0].mac.dcf packetReceivedFromPeerWithoutRetry:vector(packetBytes) ETV
attr interpolationmode none
attr source ieee80211NotRetry(packetReceivedFromPeer)
attr title "packets received: without retry, vector(packetBytes)"
vector 121 IntersectionScenario.node[0].wlan[0].mac packetSentToUpper:vector(packetBytes) ETV
attr interpolationmode none
attr title "packets sent to upper layer, vector(packetBytes)"
vector 122 IntersectionScenario.node[2].wlan[0].mac packetReceivedFromLower:vector(packetBytes) ETV
attr interpolationmode none
attr title "packets received from lower layer, vector(packetBytes)"
vector 123 IntersectionScenario.node[2].wlan[0].mac.dcf packetReceivedFromPeer:vector(packetBytes) ETV
attr interpolationmode none
attr title "packets received, vector(packetBytes)"
vector 124 IntersectionScenario.node[2].wlan[0].mac.dcf packetReceivedFromPeerMulticast:vector(packetBytes) ETV
attr interpolationmode none
attr source ieee80211Multicast(packetReceivedFromPeer)
attr title "packets received: multicast, vector(packetBytes)"
vector 125 IntersectionScenario.node[2].wlan[0].mac.dcf packetReceivedFromPeerWithoutRetry:vector(packetBytes) ETV
attr interpolationmode none
attr source ieee80211NotRetry(packetReceivedFromPeer)
attr title "packets received: without retry, vector(packetBytes)"
vector 126 IntersectionScenario.node[2].wlan[0].mac packetSentToUpper:vector(packetBytes) ETV
attr interpolationmode none
attr title "packets sent to upper layer, vector(packetBytes)"
vector 127 IntersectionScenario.node[1].wlan[0].mac packetReceivedFromLower:vector(packetBytes) ETV
attr interpolationmode none
attr title "packets received from lower layer, vector(packetBytes)"
vector 128 IntersectionScenario.node[1].wlan[0].mac.dcf packetReceivedFromPeer:vector(packetBytes) ETV
attr interpolationmode none
attr title "packets received, vector(packetBytes)"
vector 129 IntersectionScenario.node[1].wlan[0].mac.dcf packetReceivedFromPeerMulticast:vector(packetBytes) ETV
attr interpolationmode none
attr source ieee80211Multicast(packetReceivedFromPeer)
attr title "packets received: multicast, vector(packetBytes)"
vector 130 IntersectionScenario.node[1].wlan[0].mac.dcf packetReceivedFromPeerWithoutRetry:vector(packetBytes) ETV
attr interpolationmode none
attr source ieee80211NotRetry(packetReceivedFromPeer)
attr title "packets received: without retry, vector(packetBytes)"
vector 131 IntersectionScenario.node[1].wlan[0].mac packetSentToUpper:vector(packetBytes) ETV
attr interpolationmode none
attr title "packets sent to upper layer, vector(packetBytes)"
vector 132 IntersectionScenario.node[3].wlan[0].mac packetDrop:vector(packetBytes) ETV
attr interpolationmode none
attr source packetDropped
attr title "packet drops, vector(packetBytes)"
vector 133 IntersectionScenario.node[3].wlan[0].mac packetDropIncorrectlyReceived:vector(packetBytes) ETV
attr interpolationmode none
attr source packetDropReasonIsIncorrectlyReceived(packetDropped)
attr title "packet drops: incorrectly received, vector(packetBytes)"
vector 134 IntersectionScenario.node[0].wlan[0].mac packetDrop:vector(packetBytes) ETV
attr interpolationmode none
attr source packetDropped
attr title "packet drops, vector(packetBytes)"
vector 135 IntersectionScenario.node[0].wlan[0].mac packetDropIncorrectlyReceived:vector(packetBytes) ETV
attr interpolationmode none
attr source packetDropReasonIsIncorrectlyReceived(packetDropped)
attr title "packet drops: incorrectly received, vector(packetBytes)"
vector 136 IntersectionScenario.node[2].wlan[0].mac packetDrop:vector(packetBytes) ETV
attr interpolationmode none
attr source packetDropped
attr title "packet drops, vector(packetBytes)"
vector 137 IntersectionScenario.node[2].wlan[0].mac packetDropIncorrectlyReceived:vector(packetBytes) ETV
attr interpolationmode none
attr source packetDropReasonIsIncorrectlyReceived(packetDropped)
attr title "packet drops: incorrectly received, vector(packetBytes)"
vector 138 IntersectionScenario.node[1].wlan[0].mac packetDrop:vector(packetBytes) ETV
attr interpolationmode none
attr source packetDropped
attr title "packet drops, vector(packetBytes)"
vector 139 IntersectionScenario.node[1].wlan[0].mac packetDropIncorrectlyReceived:vector(packetBytes) ETV
attr interpolationmode none
attr source packetDropReasonIsIncorrectlyReceived(packetDropped)
attr title "packet drops: incorrectly received, vector(packetBytes)"
42	39	0.179642230819	40
42	128	0.282366646706	40
42	217	0.386825511715	40
42	306	0.489469986323	40
42	395	0.589905632808	40
42	484	0.694255693534	40
42	573	0.798158339412	40
42	663	0.902881684005	40
42	774	1.006752852438	40
42	863	1.10981333105	40
42	931	1.21161087056	40
42	1019	1.311911997892	40
42	1108	1.412556629384	40
42	1197	1.514749636951	40
42	1286	1.615556184507	40
42	1375	1.716778312447	40
42	1464	1.817469227195	40
42	1532	1.917954733551	40
42	1642	2.022837030877	40
42	1710	2.123032969822	40
42	1799	2.224513670818	40
42	1888	2.324834408323	40
42	1977	2.427450648588	40
42	2066	2.529043493363	40
42	2155	2.630490523818	40
42	2265	2.73463522396	40
42	2354	2.839446166685	40
42	2443	2.942307426192	40
42	2532	3.046539469523	40
42	2621	3.148521998217	40
42	2710	3.251984656175	40
42	2794	3.355204607158	40
42	2888	3.456712481239	40
42	2977	3.558856324732	40
42	3066	3.661810688547	40
42	3134	3.763967780719	40
42	3223	3.866147105316	40
42	3312	3.966648239749	40
42	3401	4.067395481272	40
42	3490	4.168014581184	40
42	3579	4.270050497672	40
42	3668	4.373660775698	40
42	3757	4.473719346106	40
42	3846	4.576324529121	40
42	4019	4.601657205987	43
42	4061	4.680293017633	40
42	4171	4.690032038198	43
42	4324	4.705134505565	43
42	4366	4.781116488415	40
42	4479	4.792918174542	43
42	4647	4.808211008057	43
42	4707	4.884767098546	40
42	4818	4.894909273293	43
42	5006	4.911510410365	43
42	5066	4.985904171692	40
42	5176	4.995199412526	43
42	5351	5.013399162964	43
42	5407	5.086027565336	40
42	5506	5.098596369821	43
42	5674	5.11835085112	43
42	5730	5.189342956354	40
42	5826	5.198699618258	43
42	5979	5.221292430106	43
42	6053	5.292487865599	40
42	6150	5.300067321853	43
42	6302	5.324729864893	43
42	6358	5.397224718572	40
42	6473	5.401337016915	43
42	6625	5.425767208736	43
42	6699	5.499095568465	40
42	6796	5.502725153883	43
42	6948	5.5283540977	43
42	7005	5.602679866865	40
42	7101	5.60555225384	43
42	7271	5.630132154799	43
42	7346	5.706506493127	40
42	7442	5.710070845966	43
42	7594	5.734941830171	43
42	7651	5.807710637013	40
42	7747	5.810152987541	43
42	7917	5.836350474123	43
42	7974	5.908030413342	40
42	8088	5.915040456655	43
42	8258	5.93750897568	43
42	8315	6.012737301867	40
42	8419	6.018192689776	43
42	8563	6.04059835256	43
42	8620	6.114473469426	40
42	8730	6.123101830139	43
42	8900	6.142441268995	43
42	8943	6.218584058101	40
42	9053	6.225658418477	43
42	9208	6.247305859897	43
42	9266	6.323116835591	40
42	9376	6.327324137702	43
42	9549	6.347968291484	43
42	9589	6.426744807431	40
42	9699	6.431177034884	43
42	9854	6.451328523936	43
42	9912	6.52884750474	40
42	10022	6.535479784181	43
42	10177	6.551605388963	43
42	10235	6.63015809548	40
42	10345	6.638896184267	43
42	10500	6.652511137216	43
42	10540	6.730442335845	40
42	10744	6.742789654674	43
42	10841	6.755449128819	43
42	10881	6.832296599845	40
42	11053	6.846788627506	43
42	11132	6.858043297969	43
42	11204	6.93518431459	40
42	11408	6.948940633131	43
42	11487	6.960724178906	43
42	11527	7.036572295062	40
42	11699	7.049876281003	43
42	11796	7.063443202093	43
42	11868	7.140982502137	40
42	12058	7.154396496395	43
42	12137	7.1669413058	43
42	12209	7.244766395368	40
42	12381	7.258378447175	43
42	12460	7.269231993349	43
42	12514	7.349055008586	40
42	12686	7.362482276204	43
42	12783	7.373309605887	43
42	12837	7.452199500783	40
42	13027	7.463775689966	43
42	13103	7.473476122462	43
42	13178	7.553976345031	40
42	13368	7.565781980861	43
42	13444	7.573974190506	43
42	13501	7.658323787697	40
42	13691	7.66885429782	43
42	13767	7.674052214262	43
42	13824	7.758664158078	40
42	14032	7.769509567395	43
42	14126	7.774629629127	43
42	14183	7.863535439163	40
42	14352	7.872703369594	43
42	14431	7.879576671433	43
42	14579	7.967451611355	40
42	14675	7.973933678961	43
42	14754	7.98216320745	43
42	14884	8.070984484893	40
42	14980	8.07573640019	43
42	15080	8.08678803546	43
42	15225	8.1750593173	40
42	15324	8.18058125213	43
42	15400	8.188270810188	43
42	15530	8.279814080342	40
42	15647	8.284030086879	43
42	15723	8.291924349129	43
42	15890	8.381685561257	40
42	15988	8.385219116509	43
42	16082	8.394170800801	43
42	16212	8.484197508539	40
42	16329	8.488389098408	43
42	16408	8.498871842684	43
42	16558	8.58874344074	43
42	16608	8.589169512479	40
42	16713	8.599633609642	43
42	16884	8.69065747446	43
42	16934	8.694008485842	40
42	17034	8.701007714347	43
42	17186	8.793417859229	43
42	17257	8.796285706574	40
42	17354	8.802249775063	43
42	17509	8.896042704879	43
42	17562	8.897953243913	40
42	17662	8.906561361217	43
42	17832	8.996565837725	43
42	17886	9.00165373155	40
42	17985	9.009673276743	43
42	18158	9.099947043558	43
42	18209	9.104372121821	40
42	18305	9.109824446447	43
42	18464	9.202599716474	43
42	18514	9.204819594541	40
42	18610	9.209946005868	43
42	18769	9.303648459648	43
42	18819	9.307705295775	40
42	18933	9.313305784969	43
42	19110	9.406650414248	43
42	19160	9.412519147346	40
42	19257	9.416788190551	43
42	19415	9.510604608488	43
42	19533	9.514729325498	40
42	19697	9.520257966013	43
42	19878	9.595189638789	43
43	39	0.179642230819	40
43	128	0.282366646706	40
43	217	0.386825511715	40
43	306	0.489469986323	40
43	395	0.589905632808	40
43	484	0.694255693534	40
43	573	0.798158339412	40
43	663	0.902881684005	40
43	774	1.006752852438	40
43	863	1.10981333105	40
43	931	1.21161087056	40
43	1019	1.311911997892	40
43	1108	1.412556629384	40
43	1197	1.514749636951	40
43	1286	1.615556184507	40
43	1375	1.716778312447	40
43	1464	1.817469227195	40
43	1532	1.917954733551	40
43	1642	2.022837030877	40
43	1710	2.123032969822	40
43	1799	2.224513670818	40
43	1888	2.324834408323	40
43	1977	2.427450648588	40
43	2066	2.529043493363	40
43	2155	2.630490523818	40
43	2265	2.73463522396	40
43	2354	2.839446166685	40
43	2443	2.942307426192	40
43	2532	3.046539469523	40
43	2621	3.148521998217	40
43	2710	3.251984656175	40
43	2794	3.355204607158	40
43	2888	3.456712481239	40
43	2977	3.558856324732	40
43	3066	3.661810688547	40
43	3134	3.763967780719	40
43	3223	3.866147105316	40
43	3312	3.966648239749	40
43	3401	4.067395481272	40
43	3490	4.168014581184	40
43	3579	4.270050497672	40
43	3668	4.373660775698	40
43	3757	4.473719346106	40
43	3846	4.576324529121	40
43	4019	4.601657205987	43
43	4061	4.680293017633	40
43	4171	4.690032038198	43
43	4324	4.705134505565	43
43	4366	4.781116488415	40
43	4479	4.792918174542	43
43	4647	4.808211008057	43
43	4707	4.884767098546	40
43	4818	4.894909273293	43
43	5006	4.911510410365	43
43	5066	4.985904171692	40
43	5176	4.995199412526	43
43	5351	5.013399162964	43
43	5407	5.086027565336	40
43	5506	5.098596369821	43
43	5674	5.11835085112	43
43	5730	5.189342956354	40
43	5826	5.198699618258	43
43	5979	5.221292430106	43
43	6053	5.292487865599	40
43	6150	5.300067321853	43
43	6302	5.324729864893	43
43	6358	5.397224718572	40
43	6473	5.401337016915	43
43	6625	5.425767208736	43
43	6699	5.499095568465	40
43	6796	5.502725153883	43
43	6948	5.5283540977	43
43	7005	5.602679866865	40
43	7101	5.60555225384	43
43	7271	5.630132154799	43
43	7346	5.706506493127	40
43	7442	5.710070845966	43
43	7594	5.734941830171	43
43	7651	5.807710637013	40
43	7747	5.810152987541	43
43	7917	5.836350474123	43
43	7974	5.908030413342	40
43	8088	5.915040456655	43
43	8258	5.93750897568	43
43	8315	6.012737301867	40
43	8419	6.018192689776	43
43	8563	6.04059835256	43
43	8620	6.114473469426	40
43	8730	6.123101830139	43
43	8900	6.142441268995	43
43	8943	6.218584058101	40
43	9053	6.225658418477	43
43	9208	6.247305859897	43
43	9266	6.323116835591	40
43	9376	6.327324137702	43
43	9549	6.347968291484	43
43	9589	6.426744807431	40
43	9699	6.431177034884	43
43	9854	6.451328523936	43
43	9912	6.52884750474	40
43	10022	6.535479784181	43
43	10177	6.551605388963	43
43	10235	6.63015809548	40
43	10345	6.638896184267	43
43	10500	6.652511137216	43
43	10540	6.730442335845	40
43	10744	6.742789654674	43
43	10841	6.755449128819	43
43	10881	6.832296599845	40
43	11053	6.846788627506	43
43	11132	6.858043297969	43
43	11204	6.93518431459	40
43	11408	6.948940633131	43
43	11487	6.960724178906	43
43	11527	7.036572295062	40
43	11699	7.049876281003	43
43	11796	7.063443202093	43
43	11868	7.140982502137	40
43	12058	7.154396496395	43
43	12137	7.1669413058	43
43	12209	7.244766395368	40
43	12381	7.258378447175	43
43	12460	7.269231993349	43
43	12514	7.349055008586	40
43	12686	7.362482276204	43
43	12783	7.373309605887	43
43	12837	7.452199500783	40
43	13027	7.463775689966	43
43	13103	7.473476122462	43
43	13178	7.553976345031	40
43	13368	7.565781980861	43
43	13444	7.573974190506	43
43	13501	7.658323787697	40
43	13691	7.66885429782	43
43	13767	7.674052214262	43
43	13824	7.758664158078	40
43	14032	7.769509567395	43
43	14126	7.774629629127	43
43	14183	7.863535439163	40
43	14352	7.872703369594	43
43	14431	7.879576671433	43
43	14579	7.967451611355	40
43	14675	7.973933678961	43
43	14754	7.98216320745	43
43	14884	8.070984484893	40
43	14980	8.07573640019	43
43	15080	8.08678803546	43
43	15225	8.1750593173	40
43	15324	8.18058125213	43
43	15400	8.188270810188	43
43	15530	8.279814080342	40
43	15647	8.284030086879	43
43	15723	8.291924349129	43
43	15890	8.381685561257	40
43	15988	8.385219116509	43
43	16082	8.394170800801	43
43	16212	8.484197508539	40
43	16329	8.488389098408	43
43	16408	8.498871842684	43
43	16558	8.58874344074	43
43	16608	8.589169512479	40
43	16713	8.599633609642	43
43	16884	8.69065747446	43
43	16934	8.694008485842	40
43	17034	8.701007714347	43
43	17186	8.793417859229	43
43	17257	8.796285706574	40
43	17354	8.802249775063	43
43	17509	8.896042704879	43
43	17562	8.897953243913	40
43	17662	8.906561361217	43
43	17832	8.996565837725	43
43	17886	9.00165373155	40
43	17985	9.009673276743	43
43	18158	9.099947043558	43
43	18209	9.104372121821	40
43	18305	9.109824446447	43
43	18464	9.202599716474	43
43	18514	9.204819594541	40
43	18610	9.209946005868	43
43	18769	9.303648459648	43
43	18819	9.307705295775	40
43	18933	9.313305784969	43
43	19110	9.406650414248	43
43	19160	9.412519147346	40
43	19257	9.416788190551	43
43	19415	9.510604608488	43
43	19533	9.514729325498	40
43	19697	9.520257966013	43
43	19878	9.595189638789	43
127	3951	4.601334205987	73
127	3982	4.601516206076	73
127	4012	4.601657205987	70
127	4124	4.680649213189	73
127	4164	4.690032038198	70
127	4277	4.703151951236	73
127	4317	4.705134505565	70
127	4429	4.781381670897	73
127	4472	4.792918174542	70
127	4611	4.807888008057	73
127	4640	4.808211008057	70
127	4772	4.88511026776	73
127	4811	4.894909273293	70
127	4938	4.908688959942	73
127	4960	4.90881896002	73
127	4999	4.911510410365	70
127	5129	4.986221327764	73
127	5169	4.995199412526	70
127	5291	5.010234926259	73
127	5313	5.010364926174	73
127	5344	5.013399162964	70
127	5468	5.08633170832	73
127	5499	5.098596369821	70
127	5641	5.113008809065	73
127	5667	5.11835085112	70
127	5791	5.189634086104	73
127	5819	5.198699618258	70
127	5944	5.214556881587	73
127	5972	5.221292430106	70
127	6114	5.292869982147	73
127	6143	5.300067321853	70
127	6267	5.315472048176	73
127	6295	5.324729864893	70
127	6412	5.397476821966	73
127	6434	5.39758082205	73
127	6466	5.401337016915	70
127	6590	5.418180038629	73
127	6618	5.425767208736	70
127	6762	5.499386658757	73
127	6789	5.502725153883	70
127	6913	5.52240830347	73
127	6941	5.5283540977	70
127	7066	5.602944930893	73
127	7094	5.60555225384	70
127	7211	5.623067529134	73
127	7233	5.623197529205	73
127	7264	5.630132154799	70
127	7407	5.706914543991	73
127	7435	5.710070845966	70
127	7559	5.72591947839	73
127	7587	5.734941830171	70
127	7712	5.808001674739	73
127	7740	5.810152987541	70
127	7857	5.82917804794	73
127	7879	5.829334047934	73
127	7910	5.836350474123	70
127	8028	5.908334437926	73
127	8050	5.90843843794	73
127	8081	5.915040456655	70
127	8223	5.930881829574	73
127	8251	5.93750897568	70
127	8376	6.013054313291	73
127	8405	6.018192689776	70
127	8529	6.032411917876	73
127	8556	6.04059835256	70
127	8683	6.114725467766	73
127	8723	6.123101830139	70
127	8853	6.134820861567	73
127	8893	6.142441268995	70
127	9009	6.218979043267	73
127	9046	6.225658418477	70
127	9155	6.235453070802	73
127	9201	6.247305859897	70
127	9329	6.323381807671	73
127	9369	6.327324137702	70
127	9497	6.33734626356	73
127	9542	6.347968291484	70
127	9652	6.427035766387	73
127	9692	6.431177034884	70
127	9801	6.43779586079	73
127	9847	6.451328523936	70
127	9975	6.529112450576	73
127	10015	6.535479784181	70
127	10123	6.539134487255	73
127	10170	6.551605388963	70
127	10298	6.63044902815	73
127	10338	6.638896184267	70
127	10447	6.640552068343	73
127	10493	6.652511137216	70
127	10600	6.730694255361	73
127	10622	6.730876255331	73
127	10697	6.741888167995	73
127	10737	6.742789654674	70
127	10834	6.755449128819	70
127	10942	6.832587506155	73
127	11018	6.844226434268	73
127	11046	6.846788627506	70
127	11125	6.858043297969	70
127	11264	6.93548820778	73
127	11286	6.935605207792	73
127	11361	6.94738927232	73
127	11401	6.948940633131	70
127	11480	6.960724178906	70
127	11588	7.03686317508	73
127	11664	7.049378637567	73
127	11692	7.049876281003	70
127	11789	7.063443202093	70
127	11929	7.141390368991	73
127	11998	7.152921462602	73
127	12020	7.15305146263	73
127	12051	7.154396496395	70
127	12130	7.1669413058	70
127	12270	7.245083249098	73
127	12343	7.254212550796	73
127	12374	7.258378447175	70
127	12453	7.269231993349	70
127	12575	7.349475849146	73
127	12648	7.359049910069	73
127	12679	7.362482276204	70
127	12776	7.373309605887	70
127	12891	7.452451328229	73
127	12913	7.452581328177	73
127	12991	7.459298461656	73
127	13020	7.463775689966	70
127	13096	7.473476122462	70
127	13232	7.554267159303	73
127	13254	7.554371159245	73
127	13330	7.559328091022	73
127	13361	7.565781980861	70
127	13437	7.573974190506	70
127	13562	7.658692588809	73
127	13628	7.660974582378	73
127	13650	7.66107858233	73
127	13684	7.66885429782	70
127	13760	7.674052214262	70
127	13878	7.758980945946	73
127	13900	7.759084945992	73
127	13969	7.76201537372	73
127	13991	7.762132373767	73
127	14025	7.769509567395	70
127	14119	7.774629629127	70
127	14253	7.863865213941	73
127	14317	7.864632988965	73
127	14345	7.872703369594	70
127	14424	7.879576671433	70
127	14567	7.965306711109	73
127	14640	7.967729372977	73
127	14668	7.973933678961	70
127	14747	7.98216320745	70
127	14872	8.06809313696	73
127	14945	8.071249233431	73
127	14973	8.07573640019	70
127	15073	8.08678803546	70
127	15188	8.169217258783	73
127	15210	8.169399258777	73
127	15286	8.175389052636	73
127	15317	8.18058125213	70
127	15393	8.188270810188	70
127	15518	8.270503345852	73
127	15584	8.280065802516	73
127	15606	8.280221802532	73
127	15640	8.284030086879	70
127	15716	8.291924349129	70
127	15852	8.371813517211	73
127	15874	8.371982517174	73
127	15952	8.381950270309	73
127	15981	8.385219116509	70
127	16075	8.394170800801	70
127	16200	8.476061449638	73
127	16266	8.484475204401	73
127	16288	8.484605204421	73
127	16322	8.488389098408	70
127	16401	8.498871842684	70
127	16525	8.579624311788	73
127	16551	8.58874344074	70
127	16670	8.589551195209	73
127	16706	8.599633609642	70
127	16821	8.680176745303	73
127	16843	8.680293745341	73
127	16877	8.69065747446	70
127	16995	8.694416155464	73
127	17027	8.701007714347	70
127	17151	8.784790537946	73
127	17179	8.793417859229	70
127	17318	8.796537363048	73
127	17347	8.802249775063	70
127	17474	8.88623842896	73
127	17502	8.896042704879	70
127	17623	8.898204887215	73
127	17655	8.906561361217	70
127	17772	8.987545628393	73
127	17794	8.987662628344	73
127	17825	8.996565837725	70
127	17947	9.001983348514	73
127	17978	9.009673276743	70
127	18095	9.088557233626	73
127	18117	9.088674233631	73
127	18151	9.099947043558	70
127	18270	9.104662725605	73
127	18298	9.109824446447	70
127	18425	9.188674640958	73
127	18457	9.202599716474	70
127	18575	9.205097185165	73
127	18603	9.209946005868	70
127	18730	9.291694783147	73
127	18762	9.303648459648	70
127	18873	9.308021873259	73
127	18895	9.308151873219	73
127	18926	9.313305784969	70
127	19073	9.391656286009	73
127	19103	9.406650414248	70
127	19221	9.412861711694	73
127	19250	9.416788190551	70
127	19376	9.494257308842	73
127	19408	9.510604608488	70
127	19471	9.510772705634	73
127	19486	9.510953160023	73
127	19612	9.514981519402	73
127	19627	9.515187973838	73
127	19654	9.515382070823	73
127	19690	9.520257966013	70
127	19769	9.520697517207	73
127	19809	9.520917614353	73
127	19871	9.595189638789	70
127	19921	9.595538189983	73
127	19948	9.595823286968	73
57	46	0.179642230819	70
57	135	0.282366646706	70
57	224	0.386825511715	70
57	313	0.489469986323	70
57	402	0.589905632808	70
57	491	0.694255693534	70
57	580	0.798158339412	70
57	670	0.902881684005	70
57	781	1.006752852438	70
57	870	1.10981333105	70
57	938	1.21161087056	70
57	1026	1.311911997892	70
57	1115	1.412556629384	70
57	1204	1.514749636951	70
57	1293	1.615556184507	70
57	1382	1.716778312447	70
57	1471	1.817469227195	70
57	1539	1.917954733551	70
57	1649	2.022837030877	70
57	1717	2.123032969822	70
57	1806	2.224513670818	70
57	1895	2.324834408323	70
57	1984	2.427450648588	70
57	2073	2.529043493363	70
57	2162	2.630490523818	70
57	2272	2.73463522396	70
57	2361	2.839446166685	70
57	2450	2.942307426192	70
57	2539	3.046539469523	70
57	2628	3.148521998217	70
57	2717	3.251984656175	70
57	2801	3.355204607158	70
57	2895	3.456712481239	70
57	2984	3.558856324732	70
57	3073	3.661810688547	70
57	3141	3.763967780719	70
57	3230	3.866147105316	70
57	3319	3.966648239749	70
57	3408	4.067395481272	70
57	3497	4.168014581184	70
57	3586	4.270050497672	70
57	3675	4.373660775698	70
57	3764	4.473719346106	70
57	3853	4.576324529121	70
57	4031	4.601728205987	73
57	4068	4.680293017633	70
57	4179	4.690090038198	73
57	4332	4.705361505565	73
57	4373	4.781116488415	70
57	4487	4.793002174542	73
57	4677	4.808464008057	73
57	4714	4.884767098546	70
57	4826	4.894980273293	73
57	5036	4.911685410365	73
57	5073	4.985904171692	70
57	5206	4.995400412526	73
57	5373	5.013457162964	73
57	5414	5.086027565336	70
57	5528	5.098706369821	73
57	5696	5.11855185112	73
57	5737	5.189342956354	70
57	5855	5.198926618258	73
57	6023	5.221506430106	73
57	6060	5.292487865599	70
57	6179	5.300177321853	73
57	6324	5.324891864893	73
57	6365	5.397224718572	70
57	6495	5.401460016915	73
57	6647	5.425877208736	73
57	6706	5.499095568465	70
57	6825	5.502848153883	73
57	6970	5.5285680977	73
57	7012	5.602679866865	70
57	7130	5.60567525384	73
57	7315	5.630320154799	73
57	7353	5.706506493127	70
57	7464	5.710206845966	73
57	7616	5.735077830171	73
57	7658	5.807710637013	70
57	7776	5.810301987541	73
57	7946	5.836577474123	73
57	7981	5.908030413342	70
57	8132	5.915280456655	73
57	8280	5.93770997568	73
57	8322	6.012737301867	70
57	8433	6.018328689776	73
57	8592	6.04076035256	73
57	8627	6.114473469426	70
57	8738	6.123172830139	73
57	8915	6.142668268995	73
57	8950	6.218584058101	70
57	9068	6.225794418477	73
57	9216	6.247389859897	73
57	9273	6.323116835591	70
57	9384	6.327434137702	73
57	9557	6.348078291484	73
57	9596	6.426744807431	70
57	9714	6.431391034884	73
57	9862	6.451425523936	73
57	9919	6.52884750474	70
57	10030	6.535641784181	73
57	10185	6.551702388963	73
57	10242	6.63015809548	70
57	10360	6.639097184267	73
57	10515	6.652725137216	73
57	10547	6.730442335845	70
57	10774	6.742990654674	73
57	10856	6.755637128819	73
57	10888	6.832296599845	70
57	11082	6.846963627506	73
57	11176	6.858244297969	73
57	11211	6.93518431459	70
57	11416	6.949011633131	73
57	11495	6.960951178906	73
57	11534	7.036572295062	70
57	11743	7.050129281003	73
57	11818	7.063579202093	73
57	11875	7.140982502137	70
57	12080	7.154545496395	73
57	12159	7.1670643058	73
57	12216	7.244766395368	70
57	12403	7.258462447175	73
57	12482	7.269354993349	73
57	12521	7.349055008586	70
57	12730	7.362696276204	73
57	12805	7.373393605887	73
57	12844	7.452199500783	70
57	13049	7.463898689966	73
57	13125	7.473573122462	73
57	13185	7.553976345031	70
57	13397	7.565917980861	73
57	13473	7.574110190506	73
57	13508	7.658323787697	70
57	13713	7.66892529782	73
57	13796	7.674240214262	73
57	13831	7.758664158078	70
57	14054	7.769632567395	73
57	14148	7.774765629127	73
57	14190	7.863535439163	70
57	14381	7.872956369594	73
57	14475	7.879764671433	73
57	14586	7.967451611355	70
57	14697	7.974004678961	73
57	14783	7.98232520745	73
57	14891	8.070984484893	70
57	15024	8.07597640019	73
57	15102	8.08698903546	73
57	15232	8.1750593173	70
57	15346	8.18063925213	73
57	15429	8.188484810188	73
57	15537	8.279814080342	70
57	15669	8.284114086879	73
57	15745	8.291982349129	73
57	15897	8.381685561257	70
57	16010	8.385290116509	73
57	16111	8.394358800801	73
57	16219	8.484197508539	70
57	16358	8.488499098408	73
57	16437	8.499046842684	73
57	16580	8.58885344074	73
57	16615	8.589169512479	70
57	16735	8.599756609642	73
57	16906	8.69074147446	73
57	16941	8.694008485842	70
57	17063	8.701182714347	73
57	17208	8.793514859229	73
57	17264	8.796285706574	70
57	17376	8.802385775063	73
57	17532	8.896126704879	73
57	17569	8.897953243913	70
57	17691	8.906736361217	73
57	17861	8.996779837725	73
57	17893	9.00165373155	70
57	18007	9.009809276743	73
57	18188	9.100044043558	73
57	18216	9.104372121821	70
57	18327	9.109934446447	73
57	18493	9.202852716474	73
57	18521	9.204819594541	70
57	18632	9.210160005868	73
57	18791	9.303836459648	73
57	18826	9.307705295775	70
57	18955	9.313376784969	73
57	19132	9.406864414248	73
57	19167	9.412519147346	70
57	19286	9.416911190551	73
57	19504	9.511102160023	73
57	19540	9.514729325498	70
57	19732	9.520406966013	73
57	19885	9.595247638789	73
44	42	0.179642230819	42
44	131	0.282366646706	42
44	220	0.386825511715	42
44	309	0.489469986323	42
44	398	0.589905632808	42
44	487	0.694255693534	42
44	576	0.798158339412	42
44	666	0.902881684005	42
44	777	1.006752852438	42
44	866	1.10981333105	42
44	934	1.21161087056	42
44	1022	1.311911997892	42
44	1111	1.412556629384	42
44	1200	1.514749636951	42
44	1289	1.615556184507	42
44	1378	1.716778312447	42
44	1467	1.817469227195	42
44	1535	1.917954733551	42
44	1645	2.022837030877	42
44	1713	2.123032969822	42
44	1802	2.224513670818	42
44	1891	2.324834408323	42
44	1980	2.427450648588	42
44	2069	2.529043493363	42
44	2158	2.630490523818	42
44	2268	2.73463522396	42
44	2357	2.839446166685	42
44	2446	2.942307426192	42
44	2535	3.046539469523	42
44	2624	3.148521998217	42
44	2713	3.251984656175	42
44	2797	3.355204607158	42
44	2891	3.456712481239	42
44	2980	3.558856324732	42
44	3069	3.661810688547	42
44	3137	3.763967780719	42
44	3226	3.866147105316	42
44	3315	3.966648239749	42
44	3404	4.067395481272	42
44	3493	4.168014581184	42
44	3582	4.270050497672	42
44	3671	4.373660775698	42
44	3760	4.473719346106	42
44	3849	4.576324529121	42
44	4022	4.601657205987	45
44	4064	4.680293017633	42
44	4174	4.690032038198	45
44	4327	4.705134505565	45
44	4369	4.781116488415	42
44	4482	4.792918174542	45
44	4650	4.808211008057	45
44	4710	4.884767098546	42
44	4821	4.894909273293	45
44	5009	4.911510410365	45
44	5069	4.985904171692	42
44	5179	4.995199412526	45
44	5354	5.013399162964	45
44	5410	5.086027565336	42
44	5509	5.098596369821	45
44	5677	5.11835085112	45
44	5733	5.189342956354	42
44	5829	5.198699618258	45
44	5982	5.221292430106	45
44	6056	5.292487865599	42
44	6153	5.300067321853	45
44	6305	5.324729864893	45
44	6361	5.397224718572	42
44	6476	5.401337016915	45
44	6628	5.425767208736	45
44	6702	5.499095568465	42
44	6799	5.502725153883	45
44	6951	5.5283540977	45
44	7008	5.602679866865	42
44	7104	5.60555225384	45
44	7274	5.630132154799	45
44	7349	5.706506493127	42
44	7445	5.710070845966	45
44	7597	5.734941830171	45
44	7654	5.807710637013	42
44	7750	5.810152987541	45
44	7920	5.836350474123	45
44	7977	5.908030413342	42
44	8091	5.915040456655	45
44	8261	5.93750897568	45
44	8318	6.012737301867	42
44	8424	6.018192689776	45
44	8566	6.04059835256	45
44	8623	6.114473469426	42
44	8733	6.123101830139	45
44	8903	6.142441268995	45
44	8946	6.218584058101	42
44	9056	6.225658418477	45
44	9211	6.247305859897	45
44	9269	6.323116835591	42
44	9379	6.327324137702	45
44	9552	6.347968291484	45
44	9592	6.426744807431	42
44	9702	6.431177034884	45
44	9857	6.451328523936	45
44	9915	6.52884750474	42
44	10025	6.535479784181	45
44	10180	6.551605388963	45
44	10238	6.63015809548	42
44	10348	6.638896184267	45
44	10503	6.652511137216	45
44	10543	6.730442335845	42
44	10747	6.742789654674	45
44	10844	6.755449128819	45
44	10884	6.832296599845	42
44	11056	6.846788627506	45
44	11135	6.858043297969	45
44	11207	6.93518431459	42
44	11411	6.948940633131	45
44	11490	6.960724178906	45
44	11530	7.036572295062	42
44	11702	7.049876281003	45
44	11799	7.063443202093	45
44	11871	7.140982502137	42
44	12061	7.154396496395	45
44	12140	7.1669413058	45
44	12212	7.244766395368	42
44	12384	7.258378447175	45
44	12463	7.269231993349	45
44	12517	7.349055008586	42
44	12689	7.362482276204	45
44	12786	7.373309605887	45
44	12840	7.452199500783	42
44	13030	7.463775689966	45
44	13106	7.473476122462	45
44	13181	7.553976345031	42
44	13371	7.565781980861	45
44	13447	7.573974190506	45
44	13504	7.658323787697	42
44	13694	7.66885429782	45
44	13770	7.674052214262	45
44	13827	7.758664158078	42
44	14035	7.769509567395	45
44	14129	7.774629629127	45
44	14186	7.863535439163	42
44	14355	7.872703369594	45
44	14434	7.879576671433	45
44	14582	7.967451611355	42
44	14678	7.973933678961	45
44	14757	7.98216320745	45
44	14887	8.070984484893	42
44	14983	8.07573640019	45
44	15083	8.08678803546	45
44	15228	8.1750593173	42
44	15327	8.18058125213	45
44	15403	8.188270810188	45
44	15533	8.279814080342	42
44	15650	8.284030086879	45
44	15726	8.291924349129	45
44	15893	8.381685561257	42
44	15991	8.385219116509	45
44	16085	8.394170800801	45
44	16215	8.484197508539	42
44	16332	8.488389098408	45
44	16411	8.498871842684	45
44	16561	8.58874344074	45
44	16611	8.589169512479	42
44	16716	8.599633609642	45
44	16887	8.69065747446	45
44	16937	8.694008485842	42
44	17037	8.701007714347	45
44	17189	8.793417859229	45
44	17260	8.796285706574	42
44	17357	8.802249775063	45
44	17512	8.896042704879	45
44	17565	8.897953243913	42
44	17665	8.906561361217	45
44	17835	8.996565837725	45
44	17889	9.00165373155	42
44	17988	9.009673276743	45
44	18161	9.099947043558	45
44	18212	9.104372121821	42
44	18308	9.109824446447	45
44	18467	9.202599716474	45
44	18517	9.204819594541	42
44	18613	9.209946005868	45
44	18772	9.303648459648	45
44	18822	9.307705295775	42
44	18936	9.313305784969	45
44	19113	9.406650414248	45
44	19163	9.412519147346	42
44	19260	9.416788190551	45
44	19418	9.510604608488	45
44	19536	9.514729325498	42
44	19700	9.520257966013	45
44	19881	9.595189638789	45
131	3951	4.601334205987	45
131	3982	4.601516206076	45
131	4012	4.601657205987	42
131	4164	4.690032038198	42
131	4317	4.705134505565	42
131	4472	4.792918174542	42
131	4640	4.808211008057	42
131	4811	4.894909273293	42
131	4938	4.908688959942	45
131	4960	4.90881896002	45
131	4999	4.911510410365	42
131	5169	4.995199412526	42
131	5291	5.010234926259	45
131	5313	5.010364926174	45
131	5344	5.013399162964	42
131	5499	5.098596369821	42
131	5667	5.11835085112	42
131	5819	5.198699618258	42
131	5972	5.221292430106	42
131	6143	5.300067321853	42
131	6295	5.324729864893	42
131	6412	5.397476821966	45
131	6434	5.39758082205	45
131	6466	5.401337016915	42
131	6618	5.425767208736	42
131	6789	5.502725153883	42
131	6941	5.5283540977	42
131	7094	5.60555225384	42
131	7211	5.623067529134	45
131	7233	5.623197529205	45
131	7264	5.630132154799	42
131	7435	5.710070845966	42
131	7587	5.734941830171	42
131	7740	5.810152987541	42
131	7857	5.82917804794	45
131	7879	5.829334047934	45
131	7910	5.836350474123	42
131	8028	5.908334437926	45
131	8050	5.90843843794	45
131	8081	5.915040456655	42
131	8251	5.93750897568	42
131	8405	6.018192689776	42
131	8556	6.04059835256	42
131	8723	6.123101830139	42
131	8893	6.142441268995	42
131	9046	6.225658418477	42
131	9201	6.247305859897	42
131	9369	6.327324137702	42
131	9542	6.347968291484	42
131	9692	6.431177034884	42
131	9847	6.451328523936	42
131	10015	6.535479784181	42
131	10170	6.551605388963	42
131	10338	6.638896184267	42
131	10493	6.652511137216	42
131	10600	6.730694255361	45
131	10622	6.730876255331	45
131	10737	6.742789654674	42
131	10834	6.755449128819	42
131	11046	6.846788627506	42
131	11125	6.858043297969	42
131	11264	6.93548820778	45
131	11286	6.935605207792	45
131	11401	6.948940633131	42
131	11480	6.960724178906	42
131	11692	7.049876281003	42
131	11789	7.063443202093	42
131	11998	7.152921462602	45
131	12020	7.15305146263	45
131	12051	7.154396496395	42
131	12130	7.1669413058	42
131	12374	7.258378447175	42
131	12453	7.269231993349	42
131	12679	7.362482276204	42
131	12776	7.373309605887	42
131	12891	7.452451328229	45
131	12913	7.452581328177	45
131	13020	7.463775689966	42
131	13096	7.473476122462	42
131	13232	7.554267159303	45
131	13254	7.554371159245	45
131	13361	7.565781980861	42
131	13437	7.573974190506	42
131	13628	7.660974582378	45
131	13650	7.66107858233	45
131	13684	7.66885429782	42
131	13760	7.674052214262	42
131	13878	7.758980945946	45
131	13900	7.759084945992	45
131	13969	7.76201537372	45
131	13991	7.762132373767	45
131	14025	7.769509567395	42
131	14119	7.774629629127	42
131	14345	7.872703369594	42
131	14424	7.879576671433	42
131	14668	7.973933678961	42
131	14747	7.98216320745	42
131	14973	8.07573640019	42
131	15073	8.08678803546	42
131	15188	8.169217258783	45
131	15210	8.169399258777	45
131	15317	8.18058125213	42
131	15393	8.188270810188	42
131	15584	8.280065802516	45
131	15606	8.280221802532	45
131	15640	8.284030086879	42
131	15716	8.291924349129	42
131	15852	8.371813517211	45
131	15874	8.371982517174	45
131	15981	8.385219116509	42
131	16075	8.394170800801	42
131	16266	8.484475204401	45
131	16288	8.484605204421	45
131	16322	8.488389098408	42
131	16401	8.498871842684	42
131	16551	8.58874344074	42
131	16706	8.599633609642	42
131	16821	8.680176745303	45
131	16843	8.680293745341	45
131	16877	8.69065747446	42
131	17027	8.701007714347	42
131	17179	8.793417859229	42
131	17347	8.802249775063	42
131	17502	8.896042704879	42
131	17655	8.906561361217	42
131	17772	8.987545628393	45
131	17794	8.987662628344	45
131	17825	8.996565837725	42
131	17978	9.009673276743	42
131	18095	9.088557233626	45
131	18117	9.088674233631	45
131	18151	9.099947043558	42
131	18298	9.109824446447	42
131	18457	9.202599716474	42
131	18603	9.209946005868	42
131	18762	9.303648459648	42
131	18873	9.308021873259	45
131	18895	9.308151873219	45
131	18926	9.313305784969	42
131	19103	9.406650414248	42
131	19250	9.416788190551	42
131	19408	9.510604608488	42
131	19471	9.510772705634	45
131	19486	9.510953160023	45
131	19612	9.514981519402	45
131	19627	9.515187973838	45
131	19654	9.515382070823	45
131	19690	9.520257966013	42
131	19769	9.520697517207	45
131	19809	9.520917614353	45
131	19871	9.595189638789	42
131	19921	9.595538189983	45
131	19948	9.595823286968	45
139	4124	4.680649213189	73
139	4277	4.703151951236	73
139	4429	4.781381670897	73
139	4611	4.807888008057	73
139	4772	4.88511026776	73
139	5129	4.986221327764	73
139	5468	5.08633170832	73
139	5641	5.113008809065	73
139	5791	5.189634086104	73
139	5944	5.214556881587	73
139	6114	5.292869982147	73
139	6267	5.315472048176	73
139	6590	5.418180038629	73
139	6762	5.499386658757	73
139	6913	5.52240830347	73
139	7066	5.602944930893	73
139	7407	5.706914543991	73
139	7559	5.72591947839	73
139	7712	5.808001674739	73
139	8223	5.930881829574	73
139	8376	6.013054313291	73
139	8529	6.032411917876	73
139	8683	6.114725467766	73
139	8853	6.134820861567	73
139	9009	6.218979043267	73
139	9155	6.235453070802	73
139	9329	6.323381807671	73
139	9497	6.33734626356	73
139	9652	6.427035766387	73
139	9801	6.43779586079	73
139	9975	6.529112450576	73
139	10123	6.539134487255	73
139	10298	6.63044902815	73
139	10447	6.640552068343	73
139	10697	6.741888167995	73
139	10942	6.832587506155	73
139	11018	6.844226434268	73
139	11361	6.94738927232	73
139	11588	7.03686317508	73
139	11664	7.049378637567	73
139	11929	7.141390368991	73
139	12270	7.245083249098	73
139	12343	7.254212550796	73
139	12575	7.349475849146	73
139	12648	7.359049910069	73
139	12991	7.459298461656	73
139	13330	7.559328091022	73
139	13562	7.658692588809	73
139	14253	7.863865213941	73
139	14317	7.864632988965	73
139	14567	7.965306711109	73
139	14640	7.967729372977	73
139	14872	8.06809313696	73
139	14945	8.071249233431	73
139	15286	8.175389052636	73
139	15518	8.270503345852	73
139	15952	8.381950270309	73
139	16200	8.476061449638	73
139	16525	8.579624311788	73
139	16670	8.589551195209	73
139	16995	8.694416155464	73
139	17151	8.784790537946	73
139	17318	8.796537363048	73
139	17474	8.88623842896	73
139	17623	8.898204887215	73
139	17947	9.001983348514	73
139	18270	9.104662725605	73
139	18425	9.188674640958	73
139	18575	9.205097185165	73
139	18730	9.291694783147	73
139	19073	9.391656286009	73
139	19221	9.412861711694	73
139	19376	9.494257308842	73
138	4124	4.680649213189	73
138	4277	4.703151951236	73
138	4429	4.781381670897	73
138	4611	4.807888008057	73
138	4772	4.88511026776	73
138	5129	4.986221327764	73
138	5468	5.08633170832	73
138	5641	5.113008809065	73
138	5791	5.189634086104	73
138	5944	5.214556881587	73
138	6114	5.292869982147	73
138	6267	5.315472048176	73
138	6590	5.418180038629	73
138	6762	5.499386658757	73
138	6913	5.52240830347	73
138	7066	5.602944930893	73
138	7407	5.706914543991	73
138	7559	5.72591947839	73
138	7712	5.808001674739	73
138	8223	5.930881829574	73
138	8376	6.013054313291	73
138	8529	6.032411917876	73
138	8683	6.114725467766	73
138	8853	6.134820861567	73
138	9009	6.218979043267	73
138	9155	6.235453070802	73
138	9329	6.323381807671	73
138	9497	6.33734626356	73
138	9652	6.427035766387	73
138	9801	6.43779586079	73
138	9975	6.529112450576	73
138	10123	6.539134487255	73
138	10298	6.63044902815	73
138	10447	6.640552068343	73
138	10697	6.741888167995	73
138	10942	6.832587506155	73
138	11018	6.844226434268	73
138	11361	6.94738927232	73
138	11588	7.03686317508	73
138	11664	7.049378637567	73
138	11929	7.141390368991	73
138	12270	7.245083249098	73
138	12343	7.254212550796	73
138	12575	7.349475849146	73
138	12648	7.359049910069	73
138	12991	7.459298461656	73
138	13330	7.559328091022	73
138	13562	7.658692588809	73
138	14253	7.863865213941	73
138	14317	7.864632988965	73
138	14567	7.965306711109	73
138	14640	7.967729372977	73
138	14872	8.06809313696	73
138	14945	8.071249233431	73
138	15286	8.175389052636	73
138	15518	8.270503345852	73
138	15952	8.381950270309	73
138	16200	8.476061449638	73
138	16525	8.579624311788	73
138	16670	8.589551195209	73
138	16995	8.694416155464	73
138	17151	8.784790537946	73
138	17318	8.796537363048	73
138	17474	8.88623842896	73
138	17623	8.898204887215	73
138	17947	9.001983348514	73
138	18270	9.104662725605	73
138	18425	9.188674640958	73
138	18575	9.205097185165	73
138	18730	9.291694783147	73
138	19073	9.391656286009	73
138	19221	9.412861711694	73
138	19376	9.494257308842	73
56	46	0.179642230819	12000000
56	135	0.282366646706	12000000
56	224	0.386825511715	12000000
56	313	0.489469986323	12000000
56	402	0.589905632808	12000000
56	491	0.694255693534	12000000
56	580	0.798158339412	12000000
56	670	0.902881684005	12000000
56	781	1.006752852438	12000000
56	870	1.10981333105	12000000
56	938	1.21161087056	12000000
56	1026	1.311911997892	12000000
56	1115	1.412556629384	12000000
56	1204	1.514749636951	12000000
56	1293	1.615556184507	12000000
56	1382	1.716778312447	12000000
56	1471	1.817469227195	12000000
56	1539	1.917954733551	12000000
56	1649	2.022837030877	12000000
56	1717	2.123032969822	12000000
56	1806	2.224513670818	12000000
56	1895	2.324834408323	12000000
56	1984	2.427450648588	12000000
56	2073	2.529043493363	12000000
56	2162	2.630490523818	12000000
56	2272	2.73463522396	12000000
56	2361	2.839446166685	12000000
56	2450	2.942307426192	12000000
56	2539	3.046539469523	12000000
56	2628	3.148521998217	12000000
56	2717	3.251984656175	12000000
56	2801	3.355204607158	12000000
56	2895	3.456712481239	12000000
56	2984	3.558856324732	12000000
56	3073	3.661810688547	12000000
56	3141	3.763967780719	12000000
56	3230	3.866147105316	12000000
56	3319	3.966648239749	12000000
56	3408	4.067395481272	12000000
56	3497	4.168014581184	12000000
56	3586	4.270050497672	12000000
56	3675	4.373660775698	12000000
56	3764	4.473719346106	12000000
56	3853	4.576324529121	12000000
56	4031	4.601728205987	12000000
56	4068	4.680293017633	12000000
56	4179	4.690090038198	12000000
56	4332	4.705361505565	12000000
56	4373	4.781116488415	12000000
56	4487	4.793002174542	12000000
56	4677	4.808464008057	12000000
56	4714	4.884767098546	12000000
56	4826	4.894980273293	12000000
56	5036	4.911685410365	12000000
56	5073	4.985904171692	12000000
56	5206	4.995400412526	12000000
56	5373	5.013457162964	12000000
56	5414	5.086027565336	12000000
56	5528	5.098706369821	12000000
56	5696	5.11855185112	12000000
56	5737	5.189342956354	12000000
56	5855	5.198926618258	12000000
56	6023	5.221506430106	12000000
56	6060	5.292487865599	12000000
56	6179	5.300177321853	12000000
56	6324	5.324891864893	12000000
56	6365	5.397224718572	12000000
56	6495	5.401460016915	12000000
56	6647	5.425877208736	12000000
56	6706	5.499095568465	12000000
56	6825	5.502848153883	12000000
56	6970	5.5285680977	12000000
56	7012	5.602679866865	12000000
56	7130	5.60567525384	12000000
56	7315	5.630320154799	12000000
56	7353	5.706506493127	12000000
56	7464	5.710206845966	12000000
56	7616	5.735077830171	12000000
56	7658	5.807710637013	12000000
56	7776	5.810301987541	12000000
56	7946	5.836577474123	12000000
56	7981	5.908030413342	12000000
56	8132	5.915280456655	12000000
56	8280	5.93770997568	12000000
56	8322	6.012737301867	12000000
56	8433	6.018328689776	12000000
56	8592	6.04076035256	12000000
56	8627	6.114473469426	12000000
56	8738	6.123172830139	12000000
56	8915	6.142668268995	12000000
56	8950	6.218584058101	12000000
56	9068	6.225794418477	12000000
56	9216	6.247389859897	12000000
56	9273	6.323116835591	12000000
56	9384	6.327434137702	12000000
56	9557	6.348078291484	12000000
56	9596	6.426744807431	12000000
56	9714	6.431391034884	12000000
56	9862	6.451425523936	12000000
56	9919	6.52884750474	12000000
56	10030	6.535641784181	12000000
56	10185	6.551702388963	12000000
56	10242	6.63015809548	12000000
56	10360	6.639097184267	12000000
56	10515	6.652725137216	12000000
56	10547	6.730442335845	12000000
56	10774	6.742990654674	12000000
56	10856	6.755637128819	12000000
56	10888	6.832296599845	12000000
56	11082	6.846963627506	12000000
56	11176	6.858244297969	12000000
56	11211	6.93518431459	12000000
56	11416	6.949011633131	12000000
56	11495	6.960951178906	12000000
56	11534	7.036572295062	12000000
56	11743	7.050129281003	12000000
56	11818	7.063579202093	12000000
56	11875	7.140982502137	12000000
56	12080	7.154545496395	12000000
56	12159	7.1670643058	12000000
56	12216	7.244766395368	12000000
56	12403	7.258462447175	12000000
56	12482	7.269354993349	12000000
56	12521	7.349055008586	12000000
56	12730	7.362696276204	12000000
56	12805	7.373393605887	12000000
56	12844	7.452199500783	12000000
56	13049	7.463898689966	12000000
56	13125	7.473573122462	12000000
56	13185	7.553976345031	12000000
56	13397	7.565917980861	12000000
56	13473	7.574110190506	12000000
56	13508	7.658323787697	12000000
56	13713	7.66892529782	12000000
56	13796	7.674240214262	12000000
56	13831	7.758664158078	12000000
56	14054	7.769632567395	12000000
56	14148	7.774765629127	12000000
56	14190	7.863535439163	12000000
56	14381	7.872956369594	12000000
56	14475	7.879764671433	12000000
56	14586	7.967451611355	12000000
56	14697	7.974004678961	12000000
56	14783	7.98232520745	12000000
56	14891	8.070984484893	12000000
56	15024	8.07597640019	12000000
56	15102	8.08698903546	12000000
56	15232	8.1750593173	12000000
56	15346	8.18063925213	12000000
56	15429	8.188484810188	12000000
56	15537	8.279814080342	12000000
56	15669	8.284114086879	12000000
56	15745	8.291982349129	12000000
56	15897	8.381685561257	12000000
56	16010	8.385290116509	12000000
56	16111	8.394358800801	12000000
56	16219	8.484197508539	12000000
56	16358	8.488499098408	12000000
56	16437	8.499046842684	12000000
56	16580	8.58885344074	12000000
56	16615	8.589169512479	12000000
56	16735	8.599756609642	12000000
56	16906	8.69074147446	12000000
56	16941	8.694008485842	12000000
56	17063	8.701182714347	12000000
56	17208	8.793514859229	12000000
56	17264	8.796285706574	12000000
56	17376	8.802385775063	12000000
56	17532	8.896126704879	12000000
56	17569	8.897953243913	12000000
56	17691	8.906736361217	12000000
56	17861	8.996779837725	12000000
56	17893	9.00165373155	12000000
56	18007	9.009809276743	12000000
56	18188	9.100044043558	12000000
56	18216	9.104372121821	12000000
56	18327	9.109934446447	12000000
56	18493	9.202852716474	12000000
56	18521	9.204819594541	12000000
56	18632	9.210160005868	12000000
56	18791	9.303836459648	12000000
56	18826	9.307705295775	12000000
56	18955	9.313376784969	12000000
56	19132	9.406864414248	12000000
56	19167	9.412519147346	12000000
56	19286	9.416911190551	12000000
56	19504	9.511102160023	12000000
56	19540	9.514729325498	12000000
56	19732	9.520406966013	12000000
56	19885	9.595247638789	12000000
58	46	0.179642230819	1
58	52	0.179738230819	0
58	135	0.282366646706	1
58	141	0.282462646706	0
58	224	0.386825511715	1
58	230	0.386921511715	0
58	313	0.489469986323	1
58	319	0.489565986323	0
58	402	0.589905632808	1
58	408	0.590001632808	0
58	491	0.694255693534	1
58	497	0.694351693534	0
58	580	0.798158339412	1
58	586	0.798254339412	0
58	670	0.902881684005	1
58	676	0.902977684005	0
58	781	1.006752852438	1
58	787	1.006848852438	0
58	870	1.10981333105	1
58	876	1.10990933105	0
58	938	1.21161087056	1
58	944	1.21170687056	0
58	1026	1.311911997892	1
58	1032	1.312007997892	0
58	1115	1.412556629384	1
58	1121	1.412652629384	0
58	1204	1.514749636951	1
58	1210	1.514845636951	0
58	1293	1.615556184507	1
58	1299	1.615652184507	0
58	1382	1.716778312447	1
58	1388	1.716874312447	0
58	1471	1.817469227195	1
58	1477	1.817565227195	0
58	1539	1.917954733551	1
58	1545	1.918050733551	0
58	1649	2.022837030877	1
58	1655	2.022933030877	0
58	1717	2.123032969822	1
58	1723	2.123128969822	0
58	1806	2.224513670818	1
58	1812	2.224609670818	0
58	1895	2.324834408323	1
58	1901	2.324930408323	0
58	1984	2.427450648588	1
58	1990	2.427546648588	0
58	2073	2.529043493363	1
58	2079	2.529139493363	0
58	2162	2.630490523818	1
58	2168	2.630586523818	0
58	2272	2.73463522396	1
58	2278	2.73473122396	0
58	2361	2.839446166685	1
58	2367	2.839542166685	0
58	2450	2.942307426192	1
58	2456	2.942403426192	0
58	2539	3.046539469523	1
58	2545	3.046635469523	0
58	2628	3.148521998217	1
58	2634	3.148617998217	0
58	2717	3.251984656175	1
58	2723	3.252080656175	0
58	2801	3.355204607158	1
58	2812	3.355300607158	0
58	2895	3.456712481239	1
58	2901	3.456808481239	0
58	2984	3.558856324732	1
58	2990	3.558952324732	0
58	3073	3.661810688547	1
58	3079	3.661906688547	0
58	3141	3.763967780719	1
58	3147	3.764063780719	0
58	3230	3.866147105316	1
58	3236	3.866243105316	0
58	3319	3.966648239749	1
58	3325	3.966744239749	0
58	3408	4.067395481272	1
58	3414	4.067491481272	0
58	3497	4.168014581184	1
58	3503	4.168110581184	0
58	3586	4.270050497672	1
58	3592	4.270146497672	0
58	3675	4.373660775698	1
58	3681	4.373756775698	0
58	3764	4.473719346106	1
58	3770	4.473815346106	0
58	3853	4.576324529121	1
58	3859	4.576420529121	0
58	4031	4.601728205987	1
58	4042	4.601824205987	0
58	4068	4.680293017633	1
58	4074	4.680389017633	0
58	4179	4.690090038198	1
58	4192	4.690186038198	0
58	4332	4.705361505565	1
58	4345	4.705457505565	0
58	4373	4.781116488415	1
58	4379	4.781212488415	0
58	4487	4.793002174542	1
58	4493	4.793098174542	0
58	4677	4.808464008057	1
58	4683	4.808560008057	0
58	4714	4.884767098546	1
58	4720	4.884863098546	0
58	4826	4.894980273293	1
58	4832	4.895076273293	0
58	5036	4.911685410365	1
58	5042	4.911781410365	0
58	5073	4.985904171692	1
58	5079	4.986000171692	0
58	5206	4.995400412526	1
58	5212	4.995496412526	0
58	5373	5.013457162964	1
58	5386	5.013553162964	0
58	5414	5.086027565336	1
58	5420	5.086123565336	0
58	5528	5.098706369821	1
58	5534	5.098802369821	0
58	5696	5.11855185112	1
58	5709	5.11864785112	0
58	5737	5.189342956354	1
58	5743	5.189438956354	0
58	5855	5.198926618258	1
58	5868	5.199022618258	0
58	6023	5.221506430106	1
58	6029	5.221602430106	0
58	6060	5.292487865599	1
58	6066	5.292583865599	0
58	6179	5.300177321853	1
58	6192	5.300273321853	0
58	6324	5.324891864893	1
58	6337	5.324987864893	0
58	6365	5.397224718572	1
58	6371	5.397320718572	0
58	6495	5.401460016915	1
58	6508	5.401556016915	0
58	6647	5.425877208736	1
58	6653	5.425973208736	0
58	6706	5.499095568465	1
58	6712	5.499191568465	0
58	6825	5.502848153883	1
58	6838	5.502944153883	0
58	6970	5.5285680977	1
58	6983	5.5286640977	0
58	7012	5.602679866865	1
58	7018	5.602775866865	0
58	7130	5.60567525384	1
58	7143	5.60577125384	0
58	7315	5.630320154799	1
58	7321	5.630416154799	0
58	7353	5.706506493127	1
58	7359	5.706602493127	0
58	7464	5.710206845966	1
58	7477	5.710302845966	0
58	7616	5.735077830171	1
58	7629	5.735173830171	0
58	7658	5.807710637013	1
58	7664	5.807806637013	0
58	7776	5.810301987541	1
58	7789	5.810397987541	0
58	7946	5.836577474123	1
58	7959	5.836673474123	0
58	7981	5.908030413342	1
58	7987	5.908126413342	0
58	8132	5.915280456655	1
58	8138	5.915376456655	0
58	8280	5.93770997568	1
58	8293	5.93780597568	0
58	8322	6.012737301867	1
58	8328	6.012833301867	0
58	8433	6.018328689776	1
58	8446	6.018424689776	0
58	8592	6.04076035256	1
58	8605	6.04085635256	0
58	8627	6.114473469426	1
58	8633	6.114569469426	0
58	8738	6.123172830139	1
58	8744	6.123268830139	0
58	8915	6.142668268995	1
58	8928	6.142764268995	0
58	8950	6.218584058101	1
58	8956	6.218680058101	0
58	9068	6.225794418477	1
58	9081	6.225890418477	0
58	9216	6.247389859897	1
58	9222	6.247485859897	0
58	9273	6.323116835591	1
58	9279	6.323212835591	0
58	9384	6.327434137702	1
58	9390	6.327530137702	0
58	9557	6.348078291484	1
58	9570	6.348174291484	0
58	9596	6.426744807431	1
58	9602	6.426840807431	0
58	9714	6.431391034884	1
58	9727	6.431487034884	0
58	9862	6.451425523936	1
58	9868	6.451521523936	0
58	9919	6.52884750474	1
58	9925	6.52894350474	0
58	10030	6.535641784181	1
58	10043	6.535737784181	0
58	10185	6.551702388963	1
58	10191	6.551798388963	0
58	10242	6.63015809548	1
58	10248	6.63025409548	0
58	10360	6.639097184267	1
58	10373	6.639193184267	0
58	10515	6.652725137216	1
58	10528	6.652821137216	0
58	10547	6.730442335845	1
58	10553	6.730538335845	0
58	10774	6.742990654674	1
58	10780	6.743086654674	0
58	10856	6.755637128819	1
58	10869	6.755733128819	0
58	10888	6.832296599845	1
58	10894	6.832392599845	0
58	11082	6.846963627506	1
58	11095	6.847059627506	0
58	11176	6.858244297969	1
58	11182	6.858340297969	0
58	11211	6.93518431459	1
58	11217	6.93528031459	0
58	11416	6.949011633131	1
58	11429	6.949107633131	0
58	11495	6.960951178906	1
58	11508	6.961047178906	0
58	11534	7.036572295062	1
58	11540	7.036668295062	0
58	11743	7.050129281003	1
58	11749	7.050225281003	0
58	11818	7.063579202093	1
58	11824	7.063675202093	0
58	11875	7.140982502137	1
58	11881	7.141078502137	0
58	12080	7.154545496395	1
58	12093	7.154641496395	0
58	12159	7.1670643058	1
58	12165	7.1671603058	0
58	12216	7.244766395368	1
58	12222	7.244862395368	0
58	12403	7.258462447175	1
58	12416	7.258558447175	0
58	12482	7.269354993349	1
58	12495	7.269450993349	0
58	12521	7.349055008586	1
58	12527	7.349151008586	0
58	12730	7.362696276204	1
58	12736	7.362792276204	0
58	12805	7.373393605887	1
58	12818	7.373489605887	0
58	12844	7.452199500783	1
58	12850	7.452295500783	0
58	13049	7.463898689966	1
58	13062	7.463994689966	0
58	13125	7.473573122462	1
58	13131	7.473669122462	0
58	13185	7.553976345031	1
58	13191	7.554072345031	0
58	13397	7.565917980861	1
58	13410	7.566013980861	0
58	13473	7.574110190506	1
58	13486	7.574206190506	0
58	13508	7.658323787697	1
58	13514	7.658419787697	0
58	13713	7.66892529782	1
58	13726	7.66902129782	0
58	13796	7.674240214262	1
58	13809	7.674336214262	0
58	13831	7.758664158078	1
58	13837	7.758760158078	0
58	14054	7.769632567395	1
58	14060	7.769728567395	0
58	14148	7.774765629127	1
58	14161	7.774861629127	0
58	14190	7.863535439163	1
58	14196	7.863631439163	0
58	14381	7.872956369594	1
58	14394	7.873052369594	0
58	14475	7.879764671433	1
58	14481	7.879860671433	0
58	14586	7.967451611355	1
58	14592	7.967547611355	0
58	14697	7.974004678961	1
58	14710	7.974100678961	0
58	14783	7.98232520745	1
58	14796	7.98242120745	0
58	14891	8.070984484893	1
58	14897	8.071080484893	0
58	15024	8.07597640019	1
58	15030	8.07607240019	0
58	15102	8.08698903546	1
58	15115	8.08708503546	0
58	15232	8.1750593173	1
58	15238	8.1751553173	0
58	15346	8.18063925213	1
58	15359	8.18073525213	0
58	15429	8.188484810188	1
58	15442	8.188580810188	0
58	15537	8.279814080342	1
58	15543	8.279910080342	0
58	15669	8.284114086879	1
58	15682	8.284210086879	0
58	15745	8.291982349129	1
58	15751	8.292078349129	0
58	15897	8.381685561257	1
58	15903	8.381781561257	0
58	16010	8.385290116509	1
58	16016	8.385386116509	0
58	16111	8.394358800801	1
58	16124	8.394454800801	0
58	16219	8.484197508539	1
58	16225	8.484293508539	0
58	16358	8.488499098408	1
58	16371	8.488595098408	0
58	16437	8.499046842684	1
58	16450	8.499142842684	0
58	16580	8.58885344074	1
58	16593	8.58894944074	0
58	16615	8.589169512479	1
58	16621	8.589265512479	0
58	16735	8.599756609642	1
58	16748	8.599852609642	0
58	16906	8.69074147446	1
58	16919	8.69083747446	0
58	16941	8.694008485842	1
58	16947	8.694104485842	0
58	17063	8.701182714347	1
58	17076	8.701278714347	0
58	17208	8.793514859229	1
58	17214	8.793610859229	0
58	17264	8.796285706574	1
58	17270	8.796381706574	0
58	17376	8.802385775063	1
58	17389	8.802481775063	0
58	17532	8.896126704879	1
58	17545	8.896222704879	0
58	17569	8.897953243913	1
58	17575	8.898049243913	0
58	17691	8.906736361217	1
58	17704	8.906832361217	0
58	17861	8.996779837725	1
58	17874	8.996875837725	0
58	17893	9.00165373155	1
58	17899	9.00174973155	0
58	18007	9.009809276743	1
58	18020	9.009905276743	0
58	18188	9.100044043558	1
58	18201	9.100140043558	0
58	18216	9.104372121821	1
58	18222	9.104468121821	0
58	18327	9.109934446447	1
58	18341	9.110030446447	0
58	18493	9.202852716474	1
58	18506	9.202948716474	0
58	18521	9.204819594541	1
58	18527	9.204915594541	0
58	18632	9.210160005868	1
58	18645	9.210256005868	0
58	18791	9.303836459648	1
58	18804	9.303932459648	0
58	18826	9.307705295775	1
58	18832	9.307801295775	0
58	18955	9.313376784969	1
[...]
119	7308	5.63030018692	73
119	7330	5.630417186813	73
119	7376	5.706603518569	70
119	7528	5.725673452948	70
119	7667	5.807807655874	70
119	7819	5.829023029073	70
119	8004	5.908127425641	70
119	8125	5.915273468986	73
119	8147	5.915377468954	73
119	8192	5.930713817287	70
119	8345	6.012834307609	70
119	8497	6.032178912134	70
119	8650	6.114570468596	70
119	8753	6.123269829309	73
119	8775	6.123386829303	73
119	8820	6.134665862397	70
119	8973	6.218681050697	70
119	9122	6.23515507823	70
119	9231	6.247486852493	73
119	9253	6.247616852441	73
119	9296	6.323213821631	70
119	9399	6.327531123742	73
119	9421	6.327635123702	73
119	9463	6.33719127752	70
119	9619	6.426841786909	70
119	9768	6.437588881382	70
119	9877	6.451522503414	73
119	9899	6.451652503356	73
119	9942	6.528944477658	70
119	10088	6.538940514337	70
119	10200	6.551799361881	73
119	10222	6.551916361817	73
119	10265	6.630255061815	70
119	10412	6.640358102008	70
119	10570	6.730539295603	70
119	10664	6.741655208266	70
119	10767	6.742970614404	73
119	10789	6.743087614432	73
119	10911	6.832393553019	70
119	10987	6.843954481094	70
119	11169	6.858211251151	73
119	11191	6.858341251143	73
119	11234	6.935281261191	70
119	11328	6.947182325719	70
119	11543	7.036669235071	70
119	11619	7.049145697549	70
119	11730	7.050057221036	73
119	11752	7.050226221012	73
119	11827	7.063676142102	73
119	11849	7.063780142125	73
119	11884	7.141079435564	70
119	11960	7.152766529175	70
119	12168	7.167161239227	73
119	12190	7.167278239305	73
119	12225	7.244863322201	70
119	12298	7.253966623963	70
119	12530	7.349151928849	70
119	12603	7.358725989771	70
119	12717	7.362637196579	73
119	12739	7.362793196467	73
119	12853	7.45229641448	70
119	12944	7.459039547959	70
119	13134	7.473670036159	73
119	13157	7.473787036288	73
119	13194	7.554073252138	70
119	13285	7.559121183915	70
119	13517	7.658420688229	70
119	13590	7.660754681798	70
119	13840	7.758761052012	70
119	13931	7.761860479786	70
119	14063	7.769729461329	73
119	14085	7.769859461601	73
119	14199	7.863632326523	70
119	14272	7.864387101547	70
119	14462	7.879757559097	73
119	14484	7.879861558793	73
119	14522	7.96511283024	70
119	14595	7.967548492166	70
119	14827	8.067886262717	70
119	14900	8.071081359136	70
119	15011	8.075904274713	73
119	15033	8.076073274433	73
119	15150	8.169049391112	70
119	15241	8.175156184965	70
119	15473	8.270296484749	70
119	15546	8.279910941429	70
119	15754	8.292079210216	73
119	15776	8.292235210536	73
119	15814	8.371658662666	70
119	15906	8.381782415765	70
119	16019	8.385386971017	73
119	16041	8.385555971351	73
119	16155	8.475854601686	70
119	16228	8.48429435647	70
119	16478	8.579352470423	70
119	16624	8.589266353844	70
119	16783	8.680008910511	70
119	16950	8.694105320634	70
119	17106	8.784492709736	70
119	17217	8.793611687439	73
119	17239	8.793728687817	73
119	17273	8.796382534784	70
119	17429	8.886044607279	70
119	17578	8.898050065535	70
119	17734	8.987312813303	70
119	17916	9.001750540032	70
119	18071	9.088337425149	70
119	18239	9.104468923713	70
119	18394	9.188376839082	70
119	18544	9.204916389866	70
119	18699	9.291487987822	70
119	18849	9.307802084517	70
119	18970	9.313473573711	73
119	18993	9.313655574082	73
119	19040	9.391501497306	70
119	19190	9.41261592952	70
119	19345	9.494050526693	70
119	19465	9.510772384473	73
119	19498	9.510953481459	73
119	19519	9.51119893562	73
119	19563	9.514826101095	70
119	19606	9.514981198241	73
119	19666	9.515382392259	73
119	19718	9.520258287449	70
119	19747	9.52050374161	73
119	19803	9.520917293192	73
119	19857	9.595189317628	70
119	19900	9.595344414386	73
119	19960	9.595823608404	73
120	3921	4.601179108253	70
120	4091	4.680390115456	70
120	4244	4.702905860066	70
120	4396	4.781213579656	70
120	4502	4.793099265783	73
120	4524	4.793242265743	73
120	4567	4.807576923497	70
120	4670	4.808392092689	73
120	4692	4.808561092712	73
120	4737	4.884864183201	70
120	4841	4.895077357948	73
120	4865	4.895246357924	73
120	4908	4.908507881944	70
120	5029	4.911678488417	73
120	5051	4.911782488441	73
120	5096	4.986001249768	70
120	5199	4.995354490576	73
120	5221	4.995497490602	73
120	5267	5.010066854767	70
120	5437	5.086124636828	70
120	5543	5.098803441313	73
120	5565	5.098946441333	73
120	5608	5.112749744219	70
120	5760	5.189440021259	70
120	5913	5.214349823372	70
120	6016	5.221499488453	73
120	6038	5.22160348844	73
120	6083	5.292584923933	70
120	6236	5.31527799652	70
120	6388	5.397321770311	70
120	6559	5.417868993506	70
120	6662	5.425974253905	73
120	6684	5.426104253969	73
120	6729	5.499192613634	70
120	6882	5.522188264955	70
120	7035	5.602776898879	70
120	7187	5.622912497191	70
120	7308	5.63030018692	73
120	7330	5.630417186813	73
120	7376	5.706603518569	70
120	7528	5.725673452948	70
120	7667	5.807807655874	70
120	7819	5.829023029073	70
120	8004	5.908127425641	70
120	8125	5.915273468986	73
120	8147	5.915377468954	73
120	8192	5.930713817287	70
120	8345	6.012834307609	70
120	8497	6.032178912134	70
120	8650	6.114570468596	70
120	8753	6.123269829309	73
120	8775	6.123386829303	73
120	8820	6.134665862397	70
120	8973	6.218681050697	70
120	9122	6.23515507823	70
120	9231	6.247486852493	73
120	9253	6.247616852441	73
120	9296	6.323213821631	70
120	9399	6.327531123742	73
120	9421	6.327635123702	73
120	9463	6.33719127752	70
120	9619	6.426841786909	70
120	9768	6.437588881382	70
120	9877	6.451522503414	73
120	9899	6.451652503356	73
120	9942	6.528944477658	70
120	10088	6.538940514337	70
120	10200	6.551799361881	73
120	10222	6.551916361817	73
120	10265	6.630255061815	70
120	10412	6.640358102008	70
120	10570	6.730539295603	70
120	10664	6.741655208266	70
120	10767	6.742970614404	73
120	10789	6.743087614432	73
120	10911	6.832393553019	70
120	10987	6.843954481094	70
120	11169	6.858211251151	73
120	11191	6.858341251143	73
120	11234	6.935281261191	70
120	11328	6.947182325719	70
120	11543	7.036669235071	70
120	11619	7.049145697549	70
120	11730	7.050057221036	73
120	11752	7.050226221012	73
120	11827	7.063676142102	73
120	11849	7.063780142125	73
120	11884	7.141079435564	70
120	11960	7.152766529175	70
120	12168	7.167161239227	73
120	12190	7.167278239305	73
120	12225	7.244863322201	70
120	12298	7.253966623963	70
120	12530	7.349151928849	70
120	12603	7.358725989771	70
120	12717	7.362637196579	73
120	12739	7.362793196467	73
120	12853	7.45229641448	70
120	12944	7.459039547959	70
120	13134	7.473670036159	73
120	13157	7.473787036288	73
120	13194	7.554073252138	70
120	13285	7.559121183915	70
120	13517	7.658420688229	70
120	13590	7.660754681798	70
120	13840	7.758761052012	70
120	13931	7.761860479786	70
120	14063	7.769729461329	73
120	14085	7.769859461601	73
120	14199	7.863632326523	70
120	14272	7.864387101547	70
120	14462	7.879757559097	73
120	14484	7.879861558793	73
120	14522	7.96511283024	70
120	14595	7.967548492166	70
120	14827	8.067886262717	70
120	14900	8.071081359136	70
120	15011	8.075904274713	73
120	15033	8.076073274433	73
120	15150	8.169049391112	70
120	15241	8.175156184965	70
120	15473	8.270296484749	70
120	15546	8.279910941429	70
120	15754	8.292079210216	73
120	15776	8.292235210536	73
120	15814	8.371658662666	70
120	15906	8.381782415765	70
120	16019	8.385386971017	73
120	16041	8.385555971351	73
120	16155	8.475854601686	70
120	16228	8.48429435647	70
120	16478	8.579352470423	70
120	16624	8.589266353844	70
120	16783	8.680008910511	70
120	16950	8.694105320634	70
120	17106	8.784492709736	70
120	17217	8.793611687439	73
120	17239	8.793728687817	73
120	17273	8.796382534784	70
120	17429	8.886044607279	70
120	17578	8.898050065535	70
120	17734	8.987312813303	70
120	17916	9.001750540032	70
120	18071	9.088337425149	70
120	18239	9.104468923713	70
120	18394	9.188376839082	70
120	18544	9.204916389866	70
120	18699	9.291487987822	70
120	18849	9.307802084517	70
120	18970	9.313473573711	73
120	18993	9.313655574082	73
120	19040	9.391501497306	70
120	19190	9.41261592952	70
120	19345	9.494050526693	70
120	19465	9.510772384473	73
120	19498	9.510953481459	73
120	19519	9.51119893562	73
120	19563	9.514826101095	70
120	19606	9.514981198241	73
120	19666	9.515382392259	73
120	19718	9.520258287449	70
120	19747	9.52050374161	73
120	19803	9.520917293192	73
120	19857	9.595189317628	70
120	19900	9.595344414386	73
120	19960	9.595823608404	73
121	3921	4.601179108253	42
121	4091	4.680390115456	42
121	4244	4.702905860066	42
121	4396	4.781213579656	42
121	4502	4.793099265783	45
121	4524	4.793242265743	45
121	4567	4.807576923497	42
121	4670	4.808392092689	45
121	4692	4.808561092712	45
121	4737	4.884864183201	42
121	4841	4.895077357948	45
121	4865	4.895246357924	45
121	4908	4.908507881944	42
121	5029	4.911678488417	45
121	5051	4.911782488441	45
121	5096	4.986001249768	42
121	5199	4.995354490576	45
121	5221	4.995497490602	45
121	5267	5.010066854767	42
121	5437	5.086124636828	42
121	5543	5.098803441313	45
121	5565	5.098946441333	45
121	5608	5.112749744219	42
121	5760	5.189440021259	42
121	5913	5.214349823372	42
121	6016	5.221499488453	45
121	6038	5.22160348844	45
121	6083	5.292584923933	42
121	6236	5.31527799652	42
121	6388	5.397321770311	42
121	6559	5.417868993506	42
121	6662	5.425974253905	45
121	6684	5.426104253969	45
121	6729	5.499192613634	42
121	6882	5.522188264955	42
121	7035	5.602776898879	42
121	7187	5.622912497191	42
121	7308	5.63030018692	45
121	7330	5.630417186813	45
121	7376	5.706603518569	42
121	7528	5.725673452948	42
121	7667	5.807807655874	42
121	7819	5.829023029073	42
121	8004	5.908127425641	42
121	8125	5.915273468986	45
121	8147	5.915377468954	45
121	8192	5.930713817287	42
121	8345	6.012834307609	42
121	8497	6.032178912134	42
121	8650	6.114570468596	42
121	8753	6.123269829309	45
121	8775	6.123386829303	45
121	8820	6.134665862397	42
121	8973	6.218681050697	42
121	9122	6.23515507823	42
121	9231	6.247486852493	45
121	9253	6.247616852441	45
121	9296	6.323213821631	42
121	9399	6.327531123742	45
121	9421	6.327635123702	45
121	9463	6.33719127752	42
121	9619	6.426841786909	42
121	9768	6.437588881382	42
121	9877	6.451522503414	45
121	9899	6.451652503356	45
121	9942	6.528944477658	42
121	10088	6.538940514337	42
121	10200	6.551799361881	45
121	10222	6.551916361817	45
121	10265	6.630255061815	42
121	10412	6.640358102008	42
121	10570	6.730539295603	42
121	10664	6.741655208266	42
121	10767	6.742970614404	45
121	10789	6.743087614432	45
121	10911	6.832393553019	42
121	10987	6.843954481094	42
121	11169	6.858211251151	45
121	11191	6.858341251143	45
121	11234	6.935281261191	42
121	11328	6.947182325719	42
121	11543	7.036669235071	42
121	11619	7.049145697549	42
121	11730	7.050057221036	45
121	11752	7.050226221012	45
121	11827	7.063676142102	45
121	11849	7.063780142125	45
121	11884	7.141079435564	42
121	11960	7.152766529175	42
121	12168	7.167161239227	45
121	12190	7.167278239305	45
121	12225	7.244863322201	42
121	12298	7.253966623963	42
121	12530	7.349151928849	42
121	12603	7.358725989771	42
121	12717	7.362637196579	45
121	12739	7.362793196467	45
121	12853	7.45229641448	42
121	12944	7.459039547959	42
121	13134	7.473670036159	45
121	13157	7.473787036288	45
121	13194	7.554073252138	42
121	13285	7.559121183915	42
121	13517	7.658420688229	42
121	13590	7.660754681798	42
121	13840	7.758761052012	42
121	13931	7.761860479786	42
121	14063	7.769729461329	45
121	14085	7.769859461601	45
121	14199	7.863632326523	42
121	14272	7.864387101547	42
121	14462	7.879757559097	45
121	14484	7.879861558793	45
121	14522	7.96511283024	42
121	14595	7.967548492166	42
121	14827	8.067886262717	42
121	14900	8.071081359136	42
121	15011	8.075904274713	45
121	15033	8.076073274433	45
121	15150	8.169049391112	42
121	15241	8.175156184965	42
121	15473	8.270296484749	42
121	15546	8.279910941429	42
121	15754	8.292079210216	45
121	15776	8.292235210536	45
121	15814	8.371658662666	42
121	15906	8.381782415765	42
121	16019	8.385386971017	45
121	16041	8.385555971351	45
121	16155	8.475854601686	42
121	16228	8.48429435647	42
121	16478	8.579352470423	42
121	16624	8.589266353844	42
121	16783	8.680008910511	42
121	16950	8.694105320634	42
121	17106	8.784492709736	42
121	17217	8.793611687439	45
121	17239	8.793728687817	45
121	17273	8.796382534784	42
121	17429	8.886044607279	42
121	17578	8.898050065535	42
121	17734	8.987312813303	42
121	17916	9.001750540032	42
121	18071	9.088337425149	42
121	18239	9.104468923713	42
121	18394	9.188376839082	42
121	18544	9.204916389866	42
121	18699	9.291487987822	42
121	18849	9.307802084517	42
121	18970	9.313473573711	45
121	18993	9.313655574082	45
121	19040	9.391501497306	42
121	19190	9.41261592952	42
121	19345	9.494050526693	42
121	19465	9.510772384473	45
121	19498	9.510953481459	45
121	19519	9.51119893562	45
121	19563	9.514826101095	42
121	19606	9.514981198241	45
121	19666	9.515382392259	45
121	19718	9.520258287449	42
121	19747	9.52050374161	45
121	19803	9.520917293192	45
121	19857	9.595189317628	42
121	19900	9.595344414386	45
121	19960	9.595823608404	45
132	4045	4.601825303723	73
132	4195	4.690187135976	73
132	4348	4.70545859677	73
132	5389	5.013554234413	73
132	5712	5.118648915995	73
132	5864	5.198984683146	73
132	6188	5.30024837359	73
132	6340	5.32498891659	73
132	6511	5.401557062061	73
132	6834	5.502906192537	73
132	6988	5.528665136254	73
132	7139	5.605707285925	73
132	7480	5.710303871398	73
132	7632	5.735174855603	73
132	7787	5.810360006446	73
132	7957	5.83659649303	73
132	8296	5.937806987972	73
132	8449	6.018425695488	73
132	8601	6.040805358278	73
132	8924	6.142726268125	73
132	9077	6.225865411008	73
132	9573	6.348175277489	73
132	9723	6.431436014268	73
132	10046	6.535738757066	73
132	10369	6.639116150551	73
132	10524	6.652731103502	73
132	10865	6.755643088536	73
132	11091	6.846995580669	73
132	11432	6.949108579726	73
132	11511	6.961048125501	73
132	12098	7.154642429836	73
132	12423	7.25855937404	73
132	12500	7.269451920214	73
132	12823	7.373490526167	73
132	13067	7.463995603689	73
132	13408	7.56596288817	73
132	13484	7.574194097816	73
132	13731	7.669022198376	73
132	13807	7.674311115038	73
132	14166	7.774862523084	73
132	14392	7.873001257287	73
132	14715	7.974101559801	73
132	14794	7.982357088592	73
132	15120	8.087085909729	73
132	15364	8.180736119798	73
132	15440	8.188542678176	73
132	15687	8.284210947974	73
132	16122	8.394377655663	73
132	16369	8.48854394667	73
132	16448	8.499052690947	73
132	16598	8.588950282125	73
132	16753	8.599853451027	73
132	16924	8.690838309271	73
132	17074	8.701266542964	73
132	17394	8.802482596714	73
132	17550	8.89622352653	73
132	17702	8.906742176654	73
132	17872	8.996785653161	73
132	18025	9.009906085222	73
132	18197	9.100127845811	73
132	18344	9.11003124833	73
132	18502	9.202910512164	73
132	18650	9.21025680118	73
132	18807	9.30393324837	73
132	19148	9.406961196409	73
132	19297	9.416994973076	73
133	4045	4.601825303723	73
133	4195	4.690187135976	73
133	4348	4.70545859677	73
133	5389	5.013554234413	73
133	5712	5.118648915995	73
133	5864	5.198984683146	73
133	6188	5.30024837359	73
133	6340	5.32498891659	73
133	6511	5.401557062061	73
133	6834	5.502906192537	73
133	6988	5.528665136254	73
133	7139	5.605707285925	73
133	7480	5.710303871398	73
133	7632	5.735174855603	73
133	7787	5.810360006446	73
133	7957	5.83659649303	73
133	8296	5.937806987972	73
133	8449	6.018425695488	73
133	8601	6.040805358278	73
133	8924	6.142726268125	73
133	9077	6.225865411008	73
133	9573	6.348175277489	73
133	9723	6.431436014268	73
133	10046	6.535738757066	73
133	10369	6.639116150551	73
133	10524	6.652731103502	73
133	10865	6.755643088536	73
133	11091	6.846995580669	73
133	11432	6.949108579726	73
133	11511	6.961048125501	73
133	12098	7.154642429836	73
133	12423	7.25855937404	73
133	12500	7.269451920214	73
133	12823	7.373490526167	73
133	13067	7.463995603689	73
133	13408	7.56596288817	73
133	13484	7.574194097816	73
133	13731	7.669022198376	73
133	13807	7.674311115038	73
133	14166	7.774862523084	73
133	14392	7.873001257287	73
133	14715	7.974101559801	73
133	14794	7.982357088592	73
133	15120	8.087085909729	73
133	15364	8.180736119798	73
133	15440	8.188542678176	73
133	15687	8.284210947974	73
133	16122	8.394377655663	73
133	16369	8.48854394667	73
133	16448	8.499052690947	73
133	16598	8.588950282125	73
133	16753	8.599853451027	73
133	16924	8.690838309271	73
133	17074	8.701266542964	73
133	17394	8.802482596714	73
133	17550	8.89622352653	73
133	17702	8.906742176654	73
133	17872	8.996785653161	73
133	18025	9.009906085222	73
133	18197	9.100127845811	73
133	18344	9.11003124833	73
133	18502	9.202910512164	73
133	18650	9.21025680118	73
133	18807	9.30393324837	73
133	19148	9.406961196409	73
133	19297	9.416994973076	73
134	4048	4.601825303767	73
134	4197	4.690187136021	73
134	4350	4.705458596806	73
134	5391	5.013554234456	73
134	5714	5.118648916025	73
134	5866	5.198984683175	73
134	6190	5.300248373631	73
134	6342	5.324988916632	73
134	6513	5.401557062084	73
134	6836	5.502906192576	73
134	6990	5.528665136295	73
134	7141	5.60570728596	73
134	7482	5.710303871408	73
134	7634	5.735174855613	73
134	7785	5.810360006442	73
134	7955	5.836596493026	73
134	8298	5.937806987979	73
134	8451	6.018425695518	73
134	8603	6.040805358305	73
134	8926	6.142726268161	73
134	9079	6.225865411019	73
134	9575	6.348175277524	73
134	9725	6.431436014302	73
134	10048	6.535738757099	73
134	10371	6.63911615056	73
134	10526	6.652731103511	73
134	10867	6.75564308855	73
134	11093	6.846995580688	73
134	11434	6.949108579732	73
134	11513	6.961048125507	73
134	12096	7.154642429822	73
134	12421	7.258559374008	73
134	12498	7.269451920182	73
134	12821	7.37349052615	73
134	13065	7.463995603663	73
134	13406	7.56596288814	73
134	13482	7.574194097786	73
134	13729	7.669022198352	73
134	13805	7.674311115014	73
134	14164	7.774862523061	73
134	14390	7.873001257258	73
134	14713	7.974101559772	73
134	14792	7.982357088563	73
134	15118	8.087085909703	73
134	15362	8.180736119795	73
134	15438	8.188542678173	73
134	15685	8.284210947966	73
134	16120	8.394377655644	73
134	16367	8.488543946659	73
134	16446	8.499052690936	73
134	16596	8.588950282105	73
134	16751	8.599853451007	73
134	16922	8.690838309252	73
134	17072	8.701266542936	73
134	17392	8.802482596685	73
134	17548	8.896223526501	73
134	17700	8.906742176629	73
134	17870	8.996785653136	73
134	18027	9.009906085225	73
134	18199	9.100127845818	73
134	18346	9.110031248339	73
134	18504	9.202910512177	73
134	18652	9.210256801193	73
134	18809	9.30393324839	73
134	19150	9.406961196422	73
134	19299	9.416994973088	73
135	4048	4.601825303767	73
135	4197	4.690187136021	73
135	4350	4.705458596806	73
135	5391	5.013554234456	73
135	5714	5.118648916025	73
135	5866	5.198984683175	73
135	6190	5.300248373631	73
135	6342	5.324988916632	73
135	6513	5.401557062084	73
135	6836	5.502906192576	73
135	6990	5.528665136295	73
135	7141	5.60570728596	73
135	7482	5.710303871408	73
135	7634	5.735174855613	73
135	7785	5.810360006442	73
135	7955	5.836596493026	73
135	8298	5.937806987979	73
135	8451	6.018425695518	73
135	8603	6.040805358305	73
135	8926	6.142726268161	73
135	9079	6.225865411019	73
135	9575	6.348175277524	73
135	9725	6.431436014302	73
135	10048	6.535738757099	73
135	10371	6.63911615056	73
135	10526	6.652731103511	73
135	10867	6.75564308855	73
135	11093	6.846995580688	73
135	11434	6.949108579732	73
135	11513	6.961048125507	73
135	12096	7.154642429822	73
135	12421	7.258559374008	73
135	12498	7.269451920182	73
135	12821	7.37349052615	73
135	13065	7.463995603663	73
135	13406	7.56596288814	73
135	13482	7.574194097786	73
135	13729	7.669022198352	73
135	13805	7.674311115014	73
135	14164	7.774862523061	73
135	14390	7.873001257258	73
135	14713	7.974101559772	73
135	14792	7.982357088563	73
135	15118	8.087085909703	73
135	15362	8.180736119795	73
135	15438	8.188542678173	73
135	15685	8.284210947966	73
135	16120	8.394377655644	73
135	16367	8.488543946659	73
135	16446	8.499052690936	73
135	16596	8.588950282105	73
135	16751	8.599853451007	73
135	16922	8.690838309252	73
135	17072	8.701266542936	73
135	17392	8.802482596685	73
135	17548	8.896223526501	73
135	17700	8.906742176629	73
135	17870	8.996785653136	73
135	18027	9.009906085225	73
135	18199	9.100127845818	73
135	18346	9.110031248339	73
135	18504	9.202910512177	73
135	18652	9.210256801193	73
135	18809	9.30393324839	73
135	19150	9.406961196422	73
135	19299	9.416994973088	73

